
     RDKit          2D

  9  8  0  0  0  0  0  0  0  0999 V2000
   -2.5981    0.0000    0.0000 O   0  0  0  0  0  0  0  0  0  0  0  0
   -1.2990    0.7500    0.0000 C   0  0  0  0  0  0  0  0  0  0  0  0
    0.0000    0.0000    0.0000 C   0  0  0  0  0  0  0  0  0  0  0  0
    1.2990    0.7500    0.0000 C   0  0  0  0  0  0  0  0  0  0  0  0
    2.5981   -0.0000    0.0000 C   0  0  0  0  0  0  0  0  0  0  0  0
    2.5981   -1.5000    0.0000 O   0  0  0  0  0  0  0  0  0  0  0  0
    3.8971    0.7500    0.0000 O   0  0  0  0  0  0  0  0  0  0  0  0
    1.2990    2.2500    0.0000 N   0  0  0  0  0  0  0  0  0  0  0  0
   -1.2990    2.2500    0.0000 O   0  0  0  0  0  0  0  0  0  0  0  0
  1  2  1  0
  2  3  1  0
  3  4  1  0
  4  5  1  0
  5  6  2  0
  5  7  1  0
  4  8  1  6
  2  9  2  0
M  END
>  <Name>  (1) 
L-Aminobutanedioic_acid_(Aspartic_acid)

>  <logK_Ce_z=3.0_T=30_I=0.1>  (1) 
5.13

$$$$

     RDKit          2D

 12 11  0  0  0  0  0  0  0  0999 V2000
    1.2990    2.2500    0.0000 O   0  0  0  0  0  0  0  0  0  0  0  0
    1.2990    0.7500    0.0000 C   0  0  0  0  0  0  0  0  0  0  0  0
    0.0000    0.0000    0.0000 C   0  0  0  0  0  0  0  0  0  0  0  0
   -1.2990    0.7500    0.0000 N   0  0  0  0  0  0  0  0  0  0  0  0
   -2.5981    0.0000    0.0000 C   0  0  0  0  0  0  0  0  0  0  0  0
   -3.8971    0.7500    0.0000 C   0  0  0  0  0  0  0  0  0  0  0  0
   -5.1962    0.0000    0.0000 N   0  0  0  0  0  0  0  0  0  0  0  0
   -6.4952    0.7500    0.0000 C   0  0  0  0  0  0  0  0  0  0  0  0
   -7.7942    0.0000    0.0000 C   0  0  0  0  0  0  0  0  0  0  0  0
   -9.0933    0.7500    0.0000 O   0  0  0  0  0  0  0  0  0  0  0  0
   -7.7942   -1.5000    0.0000 O   0  0  0  0  0  0  0  0  0  0  0  0
    2.5981   -0.0000    0.0000 O   0  0  0  0  0  0  0  0  0  0  0  0
  1  2  2  0
  2  3  1  0
  3  4  1  0
  4  5  1  0
  5  6  1  0
  6  7  1  0
  7  8  1  0
  8  9  1  0
  9 10  1  0
  9 11  2  0
  2 12  1  0
M  END
>  <Name>  (2) 
Ethylenediiminodiacetic_acid_(EDDA)

>  <logK_Ce_z=3.0_T=25_I=0.1>  (2) 
7.48

$$$$

     RDKit          2D

 18 17  0  0  0  0  0  0  0  0999 V2000
    0.0000    0.0000    0.0000 C   0  0  0  0  0  0  0  0  0  0  0  0
    1.2990    0.7500    0.0000 C   0  0  0  0  0  0  0  0  0  0  0  0
    2.5981   -0.0000    0.0000 N   0  0  0  0  0  0  0  0  0  0  0  0
    3.8971    0.7500    0.0000 C   0  0  0  0  0  0  0  0  0  0  0  0
    5.1962   -0.0000    0.0000 C   0  0  0  0  0  0  0  0  0  0  0  0
    5.1962   -1.5000    0.0000 O   0  0  0  0  0  0  0  0  0  0  0  0
    6.4952    0.7500    0.0000 O   0  0  0  0  0  0  0  0  0  0  0  0
    3.8971    2.2500    0.0000 C   0  0  0  0  0  0  0  0  0  0  0  0
    2.5981    3.0000    0.0000 O   0  0  0  0  0  0  0  0  0  0  0  0
    5.1962    3.0000    0.0000 O   0  0  0  0  0  0  0  0  0  0  0  0
   -1.2990    0.7500    0.0000 N   0  0  0  0  0  0  0  0  0  0  0  0
   -2.5981    0.0000    0.0000 C   0  0  0  0  0  0  0  0  0  0  0  0
   -3.8971    0.7500    0.0000 C   0  0  0  0  0  0  0  0  0  0  0  0
   -3.8971    2.2500    0.0000 O   0  0  0  0  0  0  0  0  0  0  0  0
   -5.1962    0.0000    0.0000 O   0  0  0  0  0  0  0  0  0  0  0  0
   -2.5981   -1.5000    0.0000 C   0  0  0  0  0  0  0  0  0  0  0  0
   -1.2990   -2.2500    0.0000 O   0  0  0  0  0  0  0  0  0  0  0  0
   -3.8971   -2.2500    0.0000 O   0  0  0  0  0  0  0  0  0  0  0  0
  1  2  1  0
  2  3  1  0
  3  4  1  0
  4  5  1  0
  5  6  2  0
  5  7  1  0
  4  8  1  0
  8  9  2  0
  8 10  1  0
  1 11  1  0
 11 12  1  0
 12 13  1  0
 13 14  2  0
 13 15  1  0
 12 16  1  0
 16 17  2  0
 16 18  1  0
M  END
>  <Name>  (3) 
Ethylenediiminodipropanedioic_acid_(EDDM)

>  <logK_Ce_z=3.0_T=20_I=0.1>  (3) 
11.58

$$$$

     RDKit          2D

 20 19  0  0  0  0  0  0  0  0999 V2000
   -2.5981    0.0000    0.0000 O   0  0  0  0  0  0  0  0  0  0  0  0
   -1.2990    0.7500    0.0000 C   0  0  0  0  0  0  0  0  0  0  0  0
   -1.2990    2.2500    0.0000 O   0  0  0  0  0  0  0  0  0  0  0  0
    0.0000    0.0000    0.0000 C   0  0  0  0  0  0  0  0  0  0  0  0
    1.2990    0.7500    0.0000 C   0  0  0  0  0  0  0  0  0  0  0  0
    1.2990    2.2500    0.0000 N   0  0  0  0  0  0  0  0  0  0  0  0
    2.5981    3.0000    0.0000 C   0  0  0  0  0  0  0  0  0  0  0  0
    2.5981    4.5000    0.0000 C   0  0  0  0  0  0  0  0  0  0  0  0
    3.8971    5.2500    0.0000 N   0  0  0  0  0  0  0  0  0  0  0  0
    3.8971    6.7500    0.0000 C   0  0  0  0  0  0  0  0  0  0  0  0
    5.1962    7.5000    0.0000 C   0  0  0  0  0  0  0  0  0  0  0  0
    5.1962    9.0000    0.0000 C   0  0  0  0  0  0  0  0  0  0  0  0
    6.4952    9.7500    0.0000 O   0  0  0  0  0  0  0  0  0  0  0  0
    3.8971    9.7500    0.0000 O   0  0  0  0  0  0  0  0  0  0  0  0
    2.5981    7.5000    0.0000 C   0  0  0  0  0  0  0  0  0  0  0  0
    2.5981    9.0000    0.0000 O   0  0  0  0  0  0  0  0  0  0  0  0
    1.2990    6.7500    0.0000 O   0  0  0  0  0  0  0  0  0  0  0  0
    2.5981   -0.0000    0.0000 C   0  0  0  0  0  0  0  0  0  0  0  0
    3.8971    0.7500    0.0000 O   0  0  0  0  0  0  0  0  0  0  0  0
    2.5981   -1.5000    0.0000 O   0  0  0  0  0  0  0  0  0  0  0  0
  1  2  1  0
  2  3  2  0
  2  4  1  0
  4  5  1  0
  5  6  1  0
  6  7  1  0
  7  8  1  0
  8  9  1  0
  9 10  1  0
 10 11  1  0
 11 12  1  0
 12 13  1  0
 12 14  2  0
 10 15  1  0
 15 16  1  0
 15 17  2  0
  5 18  1  0
 18 19  1  0
 18 20  2  0
M  END
>  <Name>  (4) 
Ethylenediiminodibutanedioic_acid_(EDDS)

>  <logK_Ce_z=3.0_T=25_I=0.1>  (4) 
12.67

>  <logK_Ce_z=3.0_T=20_I=0.1>  (4) 
12.81

$$$$

     RDKit          2D

 22 21  0  0  0  0  0  0  0  0999 V2000
    1.2990    2.2500    0.0000 O   0  0  0  0  0  0  0  0  0  0  0  0
    1.2990    0.7500    0.0000 C   0  0  0  0  0  0  0  0  0  0  0  0
    0.0000    0.0000    0.0000 C   0  0  0  0  0  0  0  0  0  0  0  0
   -1.2990    0.7500    0.0000 N   0  0  0  0  0  0  0  0  0  0  0  0
   -2.5981    0.0000    0.0000 C   0  0  0  0  0  0  0  0  0  0  0  0
   -2.5981   -1.5000    0.0000 C   0  0  0  0  0  0  0  0  0  0  0  0
   -1.2990   -2.2500    0.0000 O   0  0  0  0  0  0  0  0  0  0  0  0
   -3.8971   -2.2500    0.0000 O   0  0  0  0  0  0  0  0  0  0  0  0
   -3.8971    0.7500    0.0000 C   0  0  0  0  0  0  0  0  0  0  0  0
   -5.1962    0.0000    0.0000 C   0  0  0  0  0  0  0  0  0  0  0  0
   -5.1962   -1.5000    0.0000 O   0  0  0  0  0  0  0  0  0  0  0  0
   -6.4952    0.7500    0.0000 O   0  0  0  0  0  0  0  0  0  0  0  0
    2.5981   -0.0000    0.0000 C   0  0  0  0  0  0  0  0  0  0  0  0
    3.8971    0.7500    0.0000 N   0  0  0  0  0  0  0  0  0  0  0  0
    5.1962   -0.0000    0.0000 C   0  0  0  0  0  0  0  0  0  0  0  0
    5.1962   -1.5000    0.0000 C   0  0  0  0  0  0  0  0  0  0  0  0
    3.8971   -2.2500    0.0000 O   0  0  0  0  0  0  0  0  0  0  0  0
    6.4952   -2.2500    0.0000 O   0  0  0  0  0  0  0  0  0  0  0  0
    6.4952    0.7500    0.0000 C   0  0  0  0  0  0  0  0  0  0  0  0
    7.7942   -0.0000    0.0000 C   0  0  0  0  0  0  0  0  0  0  0  0
    7.7942   -1.5000    0.0000 O   0  0  0  0  0  0  0  0  0  0  0  0
    9.0933    0.7500    0.0000 O   0  0  0  0  0  0  0  0  0  0  0  0
  1  2  1  0
  2  3  1  0
  3  4  1  0
  4  5  1  0
  5  6  1  0
  6  7  2  0
  6  8  1  0
  5  9  1  0
  9 10  1  0
 10 11  2  0
 10 12  1  0
  2 13  1  0
 13 14  1  0
 14 15  1  0
 15 16  1  0
 16 17  2  0
 16 18  1  0
 15 19  1  0
 19 20  1  0
 20 21  2  0
 20 22  1  0
M  END
>  <Name>  (5) 
2-Hydroxy-1,3-propylenediiminodibutanedioic_acid_(rac-_or_meso-isomer_not_stated)

>  <logK_Ce_z=3.0_T=25_I=0.1>  (5) 
9.54

$$$$

     RDKit          2D

 11 10  0  0  0  0  0  0  0  0999 V2000
    1.2990    0.7500    0.0000 C   0  0  0  0  0  0  0  0  0  0  0  0
    2.5981   -0.0000    0.0000 O   0  0  0  0  0  0  0  0  0  0  0  0
    0.0000    0.0000    0.0000 C   0  0  0  0  0  0  0  0  0  0  0  0
   -1.2990    0.7500    0.0000 N   0  0  0  0  0  0  0  0  0  0  0  0
   -2.5981    0.0000    0.0000 C   0  0  0  0  0  0  0  0  0  0  0  0
   -3.8971    0.7500    0.0000 C   0  0  0  0  0  0  0  0  0  0  0  0
   -5.1962    0.0000    0.0000 O   0  0  0  0  0  0  0  0  0  0  0  0
   -1.2990    2.2500    0.0000 C   0  0  0  0  0  0  0  0  0  0  0  0
   -2.5981    3.0000    0.0000 C   0  0  0  0  0  0  0  0  0  0  0  0
   -2.5981    4.5000    0.0000 O   0  0  0  0  0  0  0  0  0  0  0  0
    1.2990    2.2500    0.0000 O   0  0  0  0  0  0  0  0  0  0  0  0
  1  2  1  0
  1  3  1  0
  3  4  1  0
  4  5  1  0
  5  6  1  0
  6  7  1  0
  4  8  1  0
  8  9  1  0
  9 10  1  0
  1 11  2  0
M  END
>  <Name>  (6) 
N,N-Bis(2-hydroxyethyl)glycine_(Bicine)

>  <logK_Ce_z=3.0_T=20_I=0.1>  (6) 
5.32

$$$$

     RDKit          2D

 12 11  0  0  0  0  0  0  0  0999 V2000
    3.8971    5.2500    0.0000 O   0  0  0  0  0  0  0  0  0  0  0  0
    2.5981    4.5000    0.0000 C   0  0  0  0  0  0  0  0  0  0  0  0
    2.5981    3.0000    0.0000 C   0  0  0  0  0  0  0  0  0  0  0  0
    1.2990    2.2500    0.0000 N   0  0  0  0  0  0  0  0  0  0  0  0
    1.2990    0.7500    0.0000 C   0  0  0  0  0  0  0  0  0  0  0  0
    0.0000    0.0000    0.0000 C   0  0  0  0  0  0  0  0  0  0  0  0
    2.5981   -0.0000    0.0000 C   0  0  0  0  0  0  0  0  0  0  0  0
    2.5981   -1.5000    0.0000 O   0  0  0  0  0  0  0  0  0  0  0  0
    3.8971    0.7500    0.0000 O   0  0  0  0  0  0  0  0  0  0  0  0
   -0.0000    3.0000    0.0000 C   0  0  0  0  0  0  0  0  0  0  0  0
   -0.0000    4.5000    0.0000 C   0  0  0  0  0  0  0  0  0  0  0  0
   -1.2990    5.2500    0.0000 O   0  0  0  0  0  0  0  0  0  0  0  0
  1  2  1  0
  2  3  1  0
  3  4  1  0
  4  5  1  0
  5  6  1  0
  5  7  1  0
  7  8  2  0
  7  9  1  0
  4 10  1  0
 10 11  1  0
 11 12  1  0
M  END
>  <Name>  (7) 
DL-N,N-Bis(2-hydroxyethyl)alanine

>  <logK_Ce_z=3.0_T=20_I=0.1>  (7) 
4.91

$$$$

     RDKit          2D

 28 29  0  0  0  0  0  0  0  0999 V2000
    5.2500   -9.0933    0.0000 O   0  0  0  0  0  0  0  0  0  0  0  0
    3.7500   -9.0933    0.0000 C   0  0  0  0  0  0  0  0  0  0  0  0
    3.0000  -10.3923    0.0000 O   0  0  0  0  0  0  0  0  0  0  0  0
    3.0000   -7.7942    0.0000 C   0  0  0  0  0  0  0  0  0  0  0  0
    1.5000   -7.7942    0.0000 N   0  0  0  0  0  0  0  0  0  0  0  0
    0.7500   -6.4952    0.0000 C   0  0  0  0  0  0  0  0  0  0  0  0
    1.5000   -5.1962    0.0000 C   0  0  0  0  0  0  0  0  0  0  0  0
    0.7500   -3.8971    0.0000 N   0  0  0  0  0  0  0  0  0  0  0  0
   -0.7500   -3.8971    0.0000 C   0  0  0  0  0  0  0  0  0  0  0  0
   -1.5000   -5.1962    0.0000 C   0  0  0  0  0  0  0  0  0  0  0  0
   -3.0000   -5.1962    0.0000 O   0  0  0  0  0  0  0  0  0  0  0  0
   -0.7500   -6.4952    0.0000 O   0  0  0  0  0  0  0  0  0  0  0  0
    1.5000   -2.5981    0.0000 C   0  0  0  0  0  0  0  0  0  0  0  0
    0.7500   -1.2990    0.0000 C   0  0  0  0  0  0  0  0  0  0  0  0
    1.5000    0.0000    0.0000 C   0  0  0  0  0  0  0  0  0  0  0  0
    0.7500    1.2990    0.0000 C   0  0  0  0  0  0  0  0  0  0  0  0
   -0.7500    1.2990    0.0000 C   0  0  0  0  0  0  0  0  0  0  0  0
   -1.5000    0.0000    0.0000 C   0  0  0  0  0  0  0  0  0  0  0  0
   -0.7500   -1.2990    0.0000 C   0  0  0  0  0  0  0  0  0  0  0  0
   -1.5000   -2.5981    0.0000 O   0  0  0  0  0  0  0  0  0  0  0  0
    0.7500   -9.0933    0.0000 C   0  0  0  0  0  0  0  0  0  0  0  0
   -0.7500   -9.0933    0.0000 C   0  0  0  0  0  0  0  0  0  0  0  0
   -1.5000   -7.7942    0.0000 C   0  0  0  0  0  0  0  0  0  0  0  0
   -3.0000   -7.7942    0.0000 C   0  0  0  0  0  0  0  0  0  0  0  0
   -3.7500   -9.0933    0.0000 C   0  0  0  0  0  0  0  0  0  0  0  0
   -3.0000  -10.3923    0.0000 C   0  0  0  0  0  0  0  0  0  0  0  0
   -1.5000  -10.3923    0.0000 C   0  0  0  0  0  0  0  0  0  0  0  0
   -0.7500  -11.6913    0.0000 O   0  0  0  0  0  0  0  0  0  0  0  0
  1  2  1  0
  2  3  2  0
  2  4  1  0
  4  5  1  0
  5  6  1  0
  6  7  1  0
  7  8  1  0
  8  9  1  0
  9 10  1  0
 10 11  1  0
 10 12  2  0
  8 13  1  0
 13 14  1  0
 14 15  2  0
 15 16  1  0
 16 17  2  0
 17 18  1  0
 18 19  2  0
 19 20  1  0
  5 21  1  0
 21 22  1  0
 22 23  2  0
 23 24  1  0
 24 25  2  0
 25 26  1  0
 26 27  2  0
 27 28  1  0
 19 14  1  0
 27 22  1  0
M  END
>  <Name>  (8) 
N,N'-Bis(2-hydroxybenzyl)ethylenedinitrilodiacetic_acid_(HBED)

>  <logK_Ce_z=3.0_T=20_I=0.1>  (8) 
17.16

$$$$

     RDKit          2D

 29 29  0  0  0  0  0  0  0  0999 V2000
    5.1073    0.0000    0.0000 O   0  0  0  0  0  0  0  0  0  0  0  0
    3.6073    0.0000    0.0000 C   0  0  0  0  0  0  0  0  0  0  0  0
    3.2954    1.4672    0.0000 C   0  0  0  0  0  0  0  0  0  0  0  0
    2.4138    2.6807    0.0000 N   0  0  0  0  0  0  0  0  0  0  0  0
    1.1147    3.4307    0.0000 C   0  0  0  0  0  0  0  0  0  0  0  0
   -0.3771    3.5875    0.0000 C   0  0  0  0  0  0  0  0  0  0  0  0
   -1.8037    3.1240    0.0000 N   0  0  0  0  0  0  0  0  0  0  0  0
   -2.9184    2.1203    0.0000 C   0  0  0  0  0  0  0  0  0  0  0  0
   -3.5285    0.7500    0.0000 C   0  0  0  0  0  0  0  0  0  0  0  0
   -3.5285   -0.7500    0.0000 N   0  0  0  0  0  0  0  0  0  0  0  0
   -2.9184   -2.1203    0.0000 C   0  0  0  0  0  0  0  0  0  0  0  0
   -1.8037   -3.1240    0.0000 C   0  0  0  0  0  0  0  0  0  0  0  0
   -0.3771   -3.5875    0.0000 N   0  0  0  0  0  0  0  0  0  0  0  0
    1.1147   -3.4307    0.0000 C   0  0  0  0  0  0  0  0  0  0  0  0
    2.4138   -2.6807    0.0000 C   0  0  0  0  0  0  0  0  0  0  0  0
    3.2954   -1.4672    0.0000 N   0  0  0  0  0  0  0  0  0  0  0  0
   -2.5537   -4.4231    0.0000 O   0  0  0  0  0  0  0  0  0  0  0  0
   -4.9957   -1.0619    0.0000 C   0  0  0  0  0  0  0  0  0  0  0  0
   -5.9994    0.0528    0.0000 C   0  0  0  0  0  0  0  0  0  0  0  0
   -5.5359    1.4794    0.0000 O   0  0  0  0  0  0  0  0  0  0  0  0
   -7.4666   -0.2590    0.0000 O   0  0  0  0  0  0  0  0  0  0  0  0
   -2.5537    4.4231    0.0000 C   0  0  0  0  0  0  0  0  0  0  0  0
   -1.8037    5.7221    0.0000 C   0  0  0  0  0  0  0  0  0  0  0  0
   -0.3037    5.7221    0.0000 O   0  0  0  0  0  0  0  0  0  0  0  0
   -2.5537    7.0211    0.0000 O   0  0  0  0  0  0  0  0  0  0  0  0
    3.4175    3.7955    0.0000 C   0  0  0  0  0  0  0  0  0  0  0  0
    4.8847    3.4836    0.0000 C   0  0  0  0  0  0  0  0  0  0  0  0
    5.3482    2.0570    0.0000 O   0  0  0  0  0  0  0  0  0  0  0  0
    5.8884    4.5983    0.0000 O   0  0  0  0  0  0  0  0  0  0  0  0
  1  2  2  0
  2  3  1  0
  3  4  1  0
  4  5  1  0
  5  6  1  0
  6  7  1  0
  7  8  1  0
  8  9  1  0
  9 10  1  0
 10 11  1  0
 11 12  1  0
 12 13  1  0
 13 14  1  0
 14 15  1  0
 15 16  1  0
 12 17  2  0
 10 18  1  0
 18 19  1  0
 19 20  2  0
 19 21  1  0
  7 22  1  0
 22 23  1  0
 23 24  2  0
 23 25  1  0
  4 26  1  0
 26 27  1  0
 27 28  2  0
 27 29  1  0
 16  2  1  0
M  END
>  <Name>  (9) 
9,14-Dioxo-1,4,7,10,13-pentaazacyclopentadecane-1,4,7-triacetic_acid

>  <logK_Ce_z=3.0_T=25_I=0.1>  (9) 
10.5

$$$$

     RDKit          2D

 35 35  0  0  0  0  0  0  0  0999 V2000
    6.5321    0.0000    0.0000 O   0  0  0  0  0  0  0  0  0  0  0  0
    5.0321    0.0000    0.0000 C   0  0  0  0  0  0  0  0  0  0  0  0
    4.8086    1.4832    0.0000 C   0  0  0  0  0  0  0  0  0  0  0  0
    4.1577    2.8347    0.0000 N   0  0  0  0  0  0  0  0  0  0  0  0
    3.1375    3.9343    0.0000 C   0  0  0  0  0  0  0  0  0  0  0  0
    1.8384    4.6843    0.0000 C   0  0  0  0  0  0  0  0  0  0  0  0
    0.3761    5.0181    0.0000 N   0  0  0  0  0  0  0  0  0  0  0  0
   -1.1198    4.9060    0.0000 C   0  0  0  0  0  0  0  0  0  0  0  0
   -2.5161    4.3580    0.0000 C   0  0  0  0  0  0  0  0  0  0  0  0
   -3.6888    3.4227    0.0000 N   0  0  0  0  0  0  0  0  0  0  0  0
   -4.5338    2.1834    0.0000 C   0  0  0  0  0  0  0  0  0  0  0  0
   -4.9759    0.7500    0.0000 C   0  0  0  0  0  0  0  0  0  0  0  0
   -4.9759   -0.7500    0.0000 N   0  0  0  0  0  0  0  0  0  0  0  0
   -4.5338   -2.1834    0.0000 C   0  0  0  0  0  0  0  0  0  0  0  0
   -3.6888   -3.4227    0.0000 C   0  0  0  0  0  0  0  0  0  0  0  0
   -2.5161   -4.3580    0.0000 O   0  0  0  0  0  0  0  0  0  0  0  0
   -1.1198   -4.9060    0.0000 C   0  0  0  0  0  0  0  0  0  0  0  0
    0.3761   -5.0181    0.0000 C   0  0  0  0  0  0  0  0  0  0  0  0
    1.8384   -4.6843    0.0000 O   0  0  0  0  0  0  0  0  0  0  0  0
    3.1375   -3.9343    0.0000 C   0  0  0  0  0  0  0  0  0  0  0  0
    4.1577   -2.8347    0.0000 C   0  0  0  0  0  0  0  0  0  0  0  0
    4.8086   -1.4832    0.0000 N   0  0  0  0  0  0  0  0  0  0  0  0
   -6.4592    0.9736    0.0000 O   0  0  0  0  0  0  0  0  0  0  0  0
   -4.7884    4.4430    0.0000 C   0  0  0  0  0  0  0  0  0  0  0  0
   -4.4546    5.9054    0.0000 C   0  0  0  0  0  0  0  0  0  0  0  0
   -3.0212    6.3475    0.0000 O   0  0  0  0  0  0  0  0  0  0  0  0
   -5.5542    6.9256    0.0000 O   0  0  0  0  0  0  0  0  0  0  0  0
    0.4881    6.5139    0.0000 C   0  0  0  0  0  0  0  0  0  0  0  0
    1.8396    7.1647    0.0000 C   0  0  0  0  0  0  0  0  0  0  0  0
    3.0790    6.3197    0.0000 O   0  0  0  0  0  0  0  0  0  0  0  0
    1.9517    8.6605    0.0000 O   0  0  0  0  0  0  0  0  0  0  0  0
    5.3971    3.6797    0.0000 C   0  0  0  0  0  0  0  0  0  0  0  0
    5.2850    5.1755    0.0000 C   0  0  0  0  0  0  0  0  0  0  0  0
    3.9336    5.8263    0.0000 O   0  0  0  0  0  0  0  0  0  0  0  0
    6.5244    6.0205    0.0000 O   0  0  0  0  0  0  0  0  0  0  0  0
  1  2  2  0
  2  3  1  0
  3  4  1  0
  4  5  1  0
  5  6  1  0
  6  7  1  0
  7  8  1  0
  8  9  1  0
  9 10  1  0
 10 11  1  0
 11 12  1  0
 12 13  1  0
 13 14  1  0
 14 15  1  0
 15 16  1  0
 16 17  1  0
 17 18  1  0
 18 19  1  0
 19 20  1  0
 20 21  1  0
 21 22  1  0
 12 23  2  0
 10 24  1  0
 24 25  1  0
 25 26  2  0
 25 27  1  0
  7 28  1  0
 28 29  1  0
 29 30  2  0
 29 31  1  0
  4 32  1  0
 32 33  1  0
 33 34  2  0
 33 35  1  0
 22  2  1  0
M  END
>  <Name>  (10) 
9,20-Dioxo-13,16-dioxa-1,4,7,10,19-pentaazacycloheneicosane-1,4,7-triacetic_acid

>  <logK_Ce_z=3.0_T=25_I=0.1>  (10) 
15.5

$$$$

     RDKit          2D

 29 29  0  0  0  0  0  0  0  0999 V2000
    5.1073    0.0000    0.0000 O   0  0  0  0  0  0  0  0  0  0  0  0
    3.6073    0.0000    0.0000 C   0  0  0  0  0  0  0  0  0  0  0  0
    3.2954    1.4672    0.0000 C   0  0  0  0  0  0  0  0  0  0  0  0
    2.4138    2.6807    0.0000 N   0  0  0  0  0  0  0  0  0  0  0  0
    1.1147    3.4307    0.0000 C   0  0  0  0  0  0  0  0  0  0  0  0
   -0.3771    3.5875    0.0000 C   0  0  0  0  0  0  0  0  0  0  0  0
   -1.8037    3.1240    0.0000 N   0  0  0  0  0  0  0  0  0  0  0  0
   -2.9184    2.1203    0.0000 C   0  0  0  0  0  0  0  0  0  0  0  0
   -3.5285    0.7500    0.0000 C   0  0  0  0  0  0  0  0  0  0  0  0
   -3.5285   -0.7500    0.0000 N   0  0  0  0  0  0  0  0  0  0  0  0
   -2.9184   -2.1203    0.0000 C   0  0  0  0  0  0  0  0  0  0  0  0
   -1.8037   -3.1240    0.0000 C   0  0  0  0  0  0  0  0  0  0  0  0
   -0.3771   -3.5875    0.0000 N   0  0  0  0  0  0  0  0  0  0  0  0
    1.1147   -3.4307    0.0000 C   0  0  0  0  0  0  0  0  0  0  0  0
    2.4138   -2.6807    0.0000 C   0  0  0  0  0  0  0  0  0  0  0  0
    3.2954   -1.4672    0.0000 N   0  0  0  0  0  0  0  0  0  0  0  0
   -0.5339   -5.0793    0.0000 C   0  0  0  0  0  0  0  0  0  0  0  0
   -1.9042   -5.6894    0.0000 C   0  0  0  0  0  0  0  0  0  0  0  0
   -3.1177   -4.8077    0.0000 O   0  0  0  0  0  0  0  0  0  0  0  0
   -2.0610   -7.1812    0.0000 O   0  0  0  0  0  0  0  0  0  0  0  0
   -4.9957    1.0619    0.0000 O   0  0  0  0  0  0  0  0  0  0  0  0
   -2.5537    4.4231    0.0000 C   0  0  0  0  0  0  0  0  0  0  0  0
   -1.8037    5.7221    0.0000 C   0  0  0  0  0  0  0  0  0  0  0  0
   -0.3037    5.7221    0.0000 O   0  0  0  0  0  0  0  0  0  0  0  0
   -2.5537    7.0211    0.0000 O   0  0  0  0  0  0  0  0  0  0  0  0
    3.4175    3.7955    0.0000 C   0  0  0  0  0  0  0  0  0  0  0  0
    4.8847    3.4836    0.0000 C   0  0  0  0  0  0  0  0  0  0  0  0
    5.3482    2.0570    0.0000 O   0  0  0  0  0  0  0  0  0  0  0  0
    5.8884    4.5983    0.0000 O   0  0  0  0  0  0  0  0  0  0  0  0
  1  2  2  0
  2  3  1  0
  3  4  1  0
  4  5  1  0
  5  6  1  0
  6  7  1  0
  7  8  1  0
  8  9  1  0
  9 10  1  0
 10 11  1  0
 11 12  1  0
 12 13  1  0
 13 14  1  0
 14 15  1  0
 15 16  1  0
 13 17  1  0
 17 18  1  0
 18 19  2  0
 18 20  1  0
  9 21  2  0
  7 22  1  0
 22 23  1  0
 23 24  2  0
 23 25  1  0
  4 26  1  0
 26 27  1  0
 27 28  2  0
 27 29  1  0
 16  2  1  0
M  END
>  <Name>  (11) 
6,14-Dioxo-1,4,7,10,13-pentaazacyclopentadecane-1,4,10-triacetic_acid

>  <logK_Ce_z=3.0_T=25_I=0.1>  (11) 
14.2

$$$$

     RDKit          2D

 28 28  0  0  0  0  0  0  0  0999 V2000
    6.6478   -1.2990    0.0000 O   0  0  0  0  0  0  0  0  0  0  0  0
    5.1478   -1.2990    0.0000 C   0  0  0  0  0  0  0  0  0  0  0  0
    4.3978    0.0000    0.0000 C   0  0  0  0  0  0  0  0  0  0  0  0
    2.8978    0.0000    0.0000 N   0  0  0  0  0  0  0  0  0  0  0  0
    2.5095   -1.4489    0.0000 C   0  0  0  0  0  0  0  0  0  0  0  0
    1.4489   -2.5095    0.0000 C   0  0  0  0  0  0  0  0  0  0  0  0
   -0.0000   -2.8978    0.0000 N   0  0  0  0  0  0  0  0  0  0  0  0
   -0.0000   -4.3978    0.0000 C   0  0  0  0  0  0  0  0  0  0  0  0
   -1.2990   -5.1478    0.0000 C   0  0  0  0  0  0  0  0  0  0  0  0
   -2.5981   -4.3978    0.0000 O   0  0  0  0  0  0  0  0  0  0  0  0
   -1.2990   -6.6478    0.0000 O   0  0  0  0  0  0  0  0  0  0  0  0
   -1.4489   -2.5095    0.0000 C   0  0  0  0  0  0  0  0  0  0  0  0
   -2.5095   -1.4489    0.0000 C   0  0  0  0  0  0  0  0  0  0  0  0
   -2.8978    0.0000    0.0000 N   0  0  0  0  0  0  0  0  0  0  0  0
   -4.3978    0.0000    0.0000 C   0  0  0  0  0  0  0  0  0  0  0  0
   -5.1478    1.2990    0.0000 C   0  0  0  0  0  0  0  0  0  0  0  0
   -4.3978    2.5981    0.0000 O   0  0  0  0  0  0  0  0  0  0  0  0
   -6.6478    1.2990    0.0000 O   0  0  0  0  0  0  0  0  0  0  0  0
   -2.5095    1.4489    0.0000 C   0  0  0  0  0  0  0  0  0  0  0  0
   -1.4489    2.5095    0.0000 C   0  0  0  0  0  0  0  0  0  0  0  0
    0.0000    2.8978    0.0000 N   0  0  0  0  0  0  0  0  0  0  0  0
    0.0000    4.3978    0.0000 C   0  0  0  0  0  0  0  0  0  0  0  0
    1.2990    5.1478    0.0000 C   0  0  0  0  0  0  0  0  0  0  0  0
    2.5981    4.3978    0.0000 O   0  0  0  0  0  0  0  0  0  0  0  0
    1.2990    6.6478    0.0000 O   0  0  0  0  0  0  0  0  0  0  0  0
    1.4489    2.5095    0.0000 C   0  0  0  0  0  0  0  0  0  0  0  0
    2.5095    1.4489    0.0000 C   0  0  0  0  0  0  0  0  0  0  0  0
    4.3978   -2.5981    0.0000 O   0  0  0  0  0  0  0  0  0  0  0  0
  1  2  1  0
  2  3  1  0
  3  4  1  0
  4  5  1  0
  5  6  1  0
  6  7  1  0
  7  8  1  0
  8  9  1  0
  9 10  2  0
  9 11  1  0
  7 12  1  0
 12 13  1  0
 13 14  1  0
 14 15  1  0
 15 16  1  0
 16 17  2  0
 16 18  1  0
 14 19  1  0
 19 20  1  0
 20 21  1  0
 21 22  1  0
 22 23  1  0
 23 24  2  0
 23 25  1  0
 21 26  1  0
 26 27  1  0
  2 28  2  0
 27  4  1  0
M  END
>  <Name>  (12) 
1,4,7,10-Tetraazacyclododecane-N,N',N'',N'''-tetraacetic_acid_(DOTA)

>  <logK_Ce_z=3.0_T=25_I=0.1>  (12) 
23.0

$$$$

     RDKit          2D

 17 16  0  0  0  0  0  0  0  0999 V2000
   -0.2010   -4.4462    0.0000 F   0  0  0  0  0  0  0  0  0  0  0  0
    0.5490   -3.1471    0.0000 C   0  0  0  0  0  0  0  0  0  0  0  0
    1.2990   -1.8481    0.0000 C   0  0  0  0  0  0  0  0  0  0  0  0
    2.0490   -0.5490    0.0000 O   0  0  0  0  0  0  0  0  0  0  0  0
    1.2990    0.7500    0.0000 C   0  0  0  0  0  0  0  0  0  0  0  0
    2.5981    1.5000    0.0000 C   0  0  0  0  0  0  0  0  0  0  0  0
    3.8971    2.2500    0.0000 F   0  0  0  0  0  0  0  0  0  0  0  0
    1.8481    2.7990    0.0000 F   0  0  0  0  0  0  0  0  0  0  0  0
    3.3481    0.2010    0.0000 F   0  0  0  0  0  0  0  0  0  0  0  0
   -0.0000    0.0000    0.0000 C   0  0  0  0  0  0  0  0  0  0  0  0
   -1.2990    0.7500    0.0000 O   0  0  0  0  0  0  0  0  0  0  0  0
   -0.0972   -0.7912    0.0000 O   0  0  0  0  0  0  0  0  0  0  0  0
    0.5490    2.0490    0.0000 F   0  0  0  0  0  0  0  0  0  0  0  0
    0.5652   -1.5366    0.0000 F   0  0  0  0  0  0  0  0  0  0  0  0
    2.5981   -2.5981    0.0000 F   0  0  0  0  0  0  0  0  0  0  0  0
    1.8481   -3.8971    0.0000 F   0  0  0  0  0  0  0  0  0  0  0  0
   -0.7500   -2.3971    0.0000 F   0  0  0  0  0  0  0  0  0  0  0  0
  1  2  1  0
  2  3  1  0
  3  4  1  0
  4  5  1  0
  5  6  1  0
  6  7  1  0
  6  8  1  0
  6  9  1  0
  5 10  1  0
 10 11  1  0
 10 12  2  0
  5 13  1  0
  3 14  1  0
  3 15  1  0
  2 16  1  0
  2 17  1  0
M  END
>  <Name>  (13) 
1,4,7,10,13-Pentaazacyclopentadecane-N,N',N'',N''',N''''-pentaacetic_acid_(PEPA)

>  <logK_Ce_z=3.0_T=25_I=0.1>  (13) 
14.16

$$$$

     RDKit          2D

  9  8  0  0  0  0  0  0  0  0999 V2000
    1.2990    0.7500    0.0000 C   0  0  0  0  0  0  0  0  0  0  0  0
    0.0000    0.0000    0.0000 C   0  0  0  0  0  0  0  0  0  0  0  0
   -1.2990    0.7500    0.0000 N   0  0  0  0  0  0  0  0  0  0  0  0
   -2.5981    0.0000    0.0000 C   0  0  0  0  0  0  0  0  0  0  0  0
   -3.8971    0.7500    0.0000 C   0  0  0  0  0  0  0  0  0  0  0  0
   -5.1962    0.0000    0.0000 O   0  0  0  0  0  0  0  0  0  0  0  0
   -3.8971    2.2500    0.0000 O   0  0  0  0  0  0  0  0  0  0  0  0
    2.5981   -0.0000    0.0000 O   0  0  0  0  0  0  0  0  0  0  0  0
    1.2990    2.2500    0.0000 O   0  0  0  0  0  0  0  0  0  0  0  0
  1  2  1  0
  2  3  1  0
  3  4  1  0
  4  5  1  0
  5  6  1  0
  5  7  2  0
  1  8  1  0
  1  9  2  0
M  END
>  <Name>  (14) 
Iminodiacetic_acid_(IDA)

>  <logK_Ce_z=3.0_T=25_I=0.1>  (14) 
6.18

$$$$

     RDKit          2D

 16 16  0  0  0  0  0  0  0  0999 V2000
    5.2500    1.2990    0.0000 O   0  0  0  0  0  0  0  0  0  0  0  0
    6.0000    0.0000    0.0000 C   0  0  0  0  0  0  0  0  0  0  0  0
    5.2500   -1.2990    0.0000 C   0  0  0  0  0  0  0  0  0  0  0  0
    3.7500   -1.2990    0.0000 N   0  0  0  0  0  0  0  0  0  0  0  0
    3.0000   -2.5981    0.0000 C   0  0  0  0  0  0  0  0  0  0  0  0
    3.7500   -3.8971    0.0000 C   0  0  0  0  0  0  0  0  0  0  0  0
    5.2500   -3.8971    0.0000 O   0  0  0  0  0  0  0  0  0  0  0  0
    3.0000   -5.1962    0.0000 O   0  0  0  0  0  0  0  0  0  0  0  0
    3.0000    0.0000    0.0000 C   0  0  0  0  0  0  0  0  0  0  0  0
    1.5000    0.0000    0.0000 C   0  0  0  0  0  0  0  0  0  0  0  0
    0.7500   -1.2990    0.0000 C   0  0  0  0  0  0  0  0  0  0  0  0
   -0.7500   -1.2990    0.0000 C   0  0  0  0  0  0  0  0  0  0  0  0
   -1.5000    0.0000    0.0000 C   0  0  0  0  0  0  0  0  0  0  0  0
   -0.7500    1.2990    0.0000 C   0  0  0  0  0  0  0  0  0  0  0  0
    0.7500    1.2990    0.0000 C   0  0  0  0  0  0  0  0  0  0  0  0
    7.5000   -0.0000    0.0000 O   0  0  0  0  0  0  0  0  0  0  0  0
  1  2  1  0
  2  3  1  0
  3  4  1  0
  4  5  1  0
  5  6  1  0
  6  7  2  0
  6  8  1  0
  4  9  1  0
  9 10  1  0
 10 11  2  0
 11 12  1  0
 12 13  2  0
 13 14  1  0
 14 15  2  0
  2 16  2  0
 15 10  1  0
M  END
>  <Name>  (15) 
N-Benzyliminodiacetic_acid

>  <logK_Ce_z=3.0_T=25_I=0.1>  (15) 
5.75

$$$$

     RDKit          2D

 13 12  0  0  0  0  0  0  0  0999 V2000
    2.5981   -0.0000    0.0000 O   0  0  0  0  0  0  0  0  0  0  0  0
    1.2990    0.7500    0.0000 C   0  0  0  0  0  0  0  0  0  0  0  0
    0.0000    0.0000    0.0000 C   0  0  0  0  0  0  0  0  0  0  0  0
   -1.2990    0.7500    0.0000 N   0  0  0  0  0  0  0  0  0  0  0  0
   -2.5981    0.0000    0.0000 C   0  0  0  0  0  0  0  0  0  0  0  0
   -2.5981   -1.5000    0.0000 C   0  0  0  0  0  0  0  0  0  0  0  0
   -3.8971   -2.2500    0.0000 O   0  0  0  0  0  0  0  0  0  0  0  0
   -1.2990   -2.2500    0.0000 O   0  0  0  0  0  0  0  0  0  0  0  0
   -1.2990    2.2500    0.0000 C   0  0  0  0  0  0  0  0  0  0  0  0
   -2.5981    3.0000    0.0000 C   0  0  0  0  0  0  0  0  0  0  0  0
   -2.5981    4.5000    0.0000 O   0  0  0  0  0  0  0  0  0  0  0  0
   -3.8971    2.2500    0.0000 O   0  0  0  0  0  0  0  0  0  0  0  0
    1.2990    2.2500    0.0000 O   0  0  0  0  0  0  0  0  0  0  0  0
  1  2  1  0
  2  3  1  0
  3  4  1  0
  4  5  1  0
  5  6  1  0
  6  7  1  0
  6  8  2  0
  4  9  1  0
  9 10  1  0
 10 11  1  0
 10 12  2  0
  2 13  2  0
M  END
>  <Name>  (16) 
Nitrilotriacetic_acid_(NTA)

>  <logK_Ce_z=3.0_T=25_I=0.1>  (16) 
10.7

>  <logK_Ce_z=3.0_T=25_I=0.5>  (16) 
10.18

$$$$

     RDKit          2D

 14 13  0  0  0  0  0  0  0  0999 V2000
    2.5981   -0.0000    0.0000 C   0  0  0  0  0  0  0  0  0  0  0  0
    3.8971    0.7500    0.0000 O   0  0  0  0  0  0  0  0  0  0  0  0
    1.2990    0.7500    0.0000 C   0  0  0  0  0  0  0  0  0  0  0  0
    0.0000    0.0000    0.0000 C   0  0  0  0  0  0  0  0  0  0  0  0
    1.2990    2.2500    0.0000 N   0  0  0  0  0  0  0  0  0  0  0  0
    2.5981    3.0000    0.0000 C   0  0  0  0  0  0  0  0  0  0  0  0
    2.5981    4.5000    0.0000 C   0  0  0  0  0  0  0  0  0  0  0  0
    3.8971    5.2500    0.0000 O   0  0  0  0  0  0  0  0  0  0  0  0
    1.2990    5.2500    0.0000 O   0  0  0  0  0  0  0  0  0  0  0  0
   -0.0000    3.0000    0.0000 C   0  0  0  0  0  0  0  0  0  0  0  0
   -1.2990    2.2500    0.0000 C   0  0  0  0  0  0  0  0  0  0  0  0
   -2.5981    3.0000    0.0000 O   0  0  0  0  0  0  0  0  0  0  0  0
   -1.2990    0.7500    0.0000 O   0  0  0  0  0  0  0  0  0  0  0  0
    2.5981   -1.5000    0.0000 O   0  0  0  0  0  0  0  0  0  0  0  0
  1  2  1  0
  1  3  1  0
  3  4  1  0
  3  5  1  0
  5  6  1  0
  6  7  1  0
  7  8  1  0
  7  9  2  0
  5 10  1  0
 10 11  1  0
 11 12  1  0
 11 13  2  0
  1 14  2  0
M  END
>  <Name>  (17) 
DL-2-Methylnitrilotriacetic_acid

>  <logK_Ce_z=3.0_T=20_I=0.1>  (17) 
11.5

$$$$

     RDKit          2D

 15 14  0  0  0  0  0  0  0  0999 V2000
    5.1962   -0.0000    0.0000 O   0  0  0  0  0  0  0  0  0  0  0  0
    3.8971    0.7500    0.0000 C   0  0  0  0  0  0  0  0  0  0  0  0
    2.5981   -0.0000    0.0000 C   0  0  0  0  0  0  0  0  0  0  0  0
    1.2990    0.7500    0.0000 C   0  0  0  0  0  0  0  0  0  0  0  0
    1.2990    2.2500    0.0000 C   0  0  0  0  0  0  0  0  0  0  0  0
    2.5981   -1.5000    0.0000 N   0  0  0  0  0  0  0  0  0  0  0  0
    3.8971   -2.2500    0.0000 C   0  0  0  0  0  0  0  0  0  0  0  0
    3.8971   -3.7500    0.0000 C   0  0  0  0  0  0  0  0  0  0  0  0
    2.5981   -4.5000    0.0000 O   0  0  0  0  0  0  0  0  0  0  0  0
    5.1962   -4.5000    0.0000 O   0  0  0  0  0  0  0  0  0  0  0  0
    1.2990   -2.2500    0.0000 C   0  0  0  0  0  0  0  0  0  0  0  0
   -0.0000   -1.5000    0.0000 C   0  0  0  0  0  0  0  0  0  0  0  0
    0.0000    0.0000    0.0000 O   0  0  0  0  0  0  0  0  0  0  0  0
   -1.2990   -2.2500    0.0000 O   0  0  0  0  0  0  0  0  0  0  0  0
    3.8971    2.2500    0.0000 O   0  0  0  0  0  0  0  0  0  0  0  0
  1  2  1  0
  2  3  1  0
  3  4  1  0
  4  5  1  0
  3  6  1  0
  6  7  1  0
  7  8  1  0
  8  9  2  0
  8 10  1  0
  6 11  1  0
 11 12  1  0
 12 13  2  0
 12 14  1  0
  2 15  2  0
M  END
>  <Name>  (18) 
DL-2-Ethylnitrilotriacetic_acid

>  <logK_Ce_z=3.0_T=20_I=0.1>  (18) 
10.48

$$$$

     RDKit          2D

 16 15  0  0  0  0  0  0  0  0999 V2000
    2.5981   -0.0000    0.0000 C   0  0  0  0  0  0  0  0  0  0  0  0
    1.2990    0.7500    0.0000 C   0  0  0  0  0  0  0  0  0  0  0  0
    0.0000    0.0000    0.0000 C   0  0  0  0  0  0  0  0  0  0  0  0
    3.8971    0.7500    0.0000 C   0  0  0  0  0  0  0  0  0  0  0  0
    5.1962   -0.0000    0.0000 C   0  0  0  0  0  0  0  0  0  0  0  0
    5.1962   -1.5000    0.0000 O   0  0  0  0  0  0  0  0  0  0  0  0
    6.4952    0.7500    0.0000 O   0  0  0  0  0  0  0  0  0  0  0  0
    3.8971    2.2500    0.0000 N   0  0  0  0  0  0  0  0  0  0  0  0
    5.1962    3.0000    0.0000 C   0  0  0  0  0  0  0  0  0  0  0  0
    5.1962    4.5000    0.0000 C   0  0  0  0  0  0  0  0  0  0  0  0
    4.4102    5.0923    0.0000 O   0  0  0  0  0  0  0  0  0  0  0  0
    6.4952    5.2500    0.0000 O   0  0  0  0  0  0  0  0  0  0  0  0
    2.5981    3.0000    0.0000 C   0  0  0  0  0  0  0  0  0  0  0  0
    2.5981    4.5000    0.0000 C   0  0  0  0  0  0  0  0  0  0  0  0
    3.3840    5.0923    0.0000 O   0  0  0  0  0  0  0  0  0  0  0  0
    1.2990    5.2500    0.0000 O   0  0  0  0  0  0  0  0  0  0  0  0
  1  2  1  0
  2  3  1  0
  1  4  1  0
  4  5  1  0
  5  6  2  0
  5  7  1  0
  4  8  1  0
  8  9  1  0
  9 10  1  0
 10 11  2  0
 10 12  1  0
  8 13  1  0
 13 14  1  0
 14 15  2  0
 14 16  1  0
M  END
>  <Name>  (19) 
DL-2-Propylnitrilotriacetic_acid

>  <logK_Ce_z=3.0_T=20_I=0.1>  (19) 
10.15

$$$$

     RDKit          2D

 16 15  0  0  0  0  0  0  0  0999 V2000
    0.0000    0.0000    0.0000 C   0  0  0  0  0  0  0  0  0  0  0  0
    1.2990    0.7500    0.0000 C   0  0  0  0  0  0  0  0  0  0  0  0
    2.5981   -0.0000    0.0000 C   0  0  0  0  0  0  0  0  0  0  0  0
    1.2990    2.2500    0.0000 C   0  0  0  0  0  0  0  0  0  0  0  0
    2.5981    3.0000    0.0000 C   0  0  0  0  0  0  0  0  0  0  0  0
    3.8971    2.2500    0.0000 O   0  0  0  0  0  0  0  0  0  0  0  0
    2.5981    4.5000    0.0000 O   0  0  0  0  0  0  0  0  0  0  0  0
   -0.0000    3.0000    0.0000 N   0  0  0  0  0  0  0  0  0  0  0  0
   -0.0000    4.5000    0.0000 C   0  0  0  0  0  0  0  0  0  0  0  0
   -1.2990    5.2500    0.0000 C   0  0  0  0  0  0  0  0  0  0  0  0
   -2.2050    4.8655    0.0000 O   0  0  0  0  0  0  0  0  0  0  0  0
   -1.2990    6.7500    0.0000 O   0  0  0  0  0  0  0  0  0  0  0  0
   -1.2990    2.2500    0.0000 C   0  0  0  0  0  0  0  0  0  0  0  0
   -2.5981    3.0000    0.0000 C   0  0  0  0  0  0  0  0  0  0  0  0
   -3.8971    2.2500    0.0000 O   0  0  0  0  0  0  0  0  0  0  0  0
   -2.7180    3.9768    0.0000 O   0  0  0  0  0  0  0  0  0  0  0  0
  1  2  1  0
  2  3  1  0
  2  4  1  0
  4  5  1  0
  5  6  2  0
  5  7  1  0
  4  8  1  0
  8  9  1  0
  9 10  1  0
 10 11  2  0
 10 12  1  0
  8 13  1  0
 13 14  1  0
 14 15  2  0
 14 16  1  0
M  END
>  <Name>  (20) 
DL-2-(2-Propyl)nitrilotriacetic_acid

>  <logK_Ce_z=3.0_T=20_I=0.1>  (20) 
8.77

$$$$

     RDKit          2D

 19 18  0  0  0  0  0  0  0  0999 V2000
   10.3923   -0.0000    0.0000 O   0  0  0  0  0  0  0  0  0  0  0  0
    9.0933    0.7500    0.0000 C   0  0  0  0  0  0  0  0  0  0  0  0
    7.7942   -0.0000    0.0000 C   0  0  0  0  0  0  0  0  0  0  0  0
    6.4952    0.7500    0.0000 C   0  0  0  0  0  0  0  0  0  0  0  0
    5.1962   -0.0000    0.0000 C   0  0  0  0  0  0  0  0  0  0  0  0
    3.8971    0.7500    0.0000 C   0  0  0  0  0  0  0  0  0  0  0  0
    2.5981   -0.0000    0.0000 C   0  0  0  0  0  0  0  0  0  0  0  0
    1.2990    0.7500    0.0000 C   0  0  0  0  0  0  0  0  0  0  0  0
    0.0000    0.0000    0.0000 C   0  0  0  0  0  0  0  0  0  0  0  0
    7.7942   -1.5000    0.0000 N   0  0  0  0  0  0  0  0  0  0  0  0
    9.0933   -2.2500    0.0000 C   0  0  0  0  0  0  0  0  0  0  0  0
    9.0933   -3.7500    0.0000 C   0  0  0  0  0  0  0  0  0  0  0  0
    8.3073   -4.3423    0.0000 O   0  0  0  0  0  0  0  0  0  0  0  0
   10.3923   -4.5000    0.0000 O   0  0  0  0  0  0  0  0  0  0  0  0
    6.4952   -2.2500    0.0000 C   0  0  0  0  0  0  0  0  0  0  0  0
    6.4952   -3.7500    0.0000 C   0  0  0  0  0  0  0  0  0  0  0  0
    7.2812   -4.3423    0.0000 O   0  0  0  0  0  0  0  0  0  0  0  0
    5.1962   -4.5000    0.0000 O   0  0  0  0  0  0  0  0  0  0  0  0
    9.0933    2.2500    0.0000 O   0  0  0  0  0  0  0  0  0  0  0  0
  1  2  1  0
  2  3  1  0
  3  4  1  0
  4  5  1  0
  5  6  1  0
  6  7  1  0
  7  8  1  0
  8  9  1  0
  3 10  1  0
 10 11  1  0
 11 12  1  0
 12 13  2  0
 12 14  1  0
 10 15  1  0
 15 16  1  0
 16 17  2  0
 16 18  1  0
  2 19  2  0
M  END
>  <Name>  (21) 
DL-2-Hexylnitrilotriacetic_acid

>  <logK_Ce_z=3.0_T=20_I=0.1>  (21) 
10.18

$$$$

     RDKit          2D

 20 20  0  0  0  0  0  0  0  0999 V2000
    3.0000    0.0000    0.0000 C   0  0  0  0  0  0  0  0  0  0  0  0
    1.5000    0.0000    0.0000 C   0  0  0  0  0  0  0  0  0  0  0  0
    0.7500   -1.2990    0.0000 C   0  0  0  0  0  0  0  0  0  0  0  0
   -0.7500   -1.2990    0.0000 C   0  0  0  0  0  0  0  0  0  0  0  0
   -1.5000    0.0000    0.0000 C   0  0  0  0  0  0  0  0  0  0  0  0
   -0.7500    1.2990    0.0000 C   0  0  0  0  0  0  0  0  0  0  0  0
    0.7500    1.2990    0.0000 C   0  0  0  0  0  0  0  0  0  0  0  0
    3.7500   -1.2990    0.0000 C   0  0  0  0  0  0  0  0  0  0  0  0
    5.2500   -1.2990    0.0000 C   0  0  0  0  0  0  0  0  0  0  0  0
    6.0000    0.0000    0.0000 O   0  0  0  0  0  0  0  0  0  0  0  0
    5.8423   -2.0850    0.0000 O   0  0  0  0  0  0  0  0  0  0  0  0
    3.0000   -2.5981    0.0000 N   0  0  0  0  0  0  0  0  0  0  0  0
    3.7500   -3.8971    0.0000 C   0  0  0  0  0  0  0  0  0  0  0  0
    5.2500   -3.8971    0.0000 C   0  0  0  0  0  0  0  0  0  0  0  0
    5.8423   -3.1112    0.0000 O   0  0  0  0  0  0  0  0  0  0  0  0
    6.0000   -5.1962    0.0000 O   0  0  0  0  0  0  0  0  0  0  0  0
    1.5000   -2.5981    0.0000 C   0  0  0  0  0  0  0  0  0  0  0  0
    0.7500   -3.8971    0.0000 C   0  0  0  0  0  0  0  0  0  0  0  0
    1.5000   -5.1962    0.0000 O   0  0  0  0  0  0  0  0  0  0  0  0
   -0.7500   -3.8971    0.0000 O   0  0  0  0  0  0  0  0  0  0  0  0
  1  2  1  0
  2  3  2  0
  3  4  1  0
  4  5  2  0
  5  6  1  0
  6  7  2  0
  1  8  1  0
  8  9  1  0
  9 10  2  0
  9 11  1  0
  8 12  1  0
 12 13  1  0
 13 14  1  0
 14 15  2  0
 14 16  1  0
 12 17  1  0
 17 18  1  0
 18 19  2  0
 18 20  1  0
  7  2  1  0
M  END
>  <Name>  (22) 
DL-2-Benzylnitrilotriacetic_acid

>  <logK_Ce_z=3.0_T=25_I=0.1>  (22) 
11.2

$$$$

     RDKit          2D

 14 13  0  0  0  0  0  0  0  0999 V2000
    1.2990    2.2500    0.0000 O   0  0  0  0  0  0  0  0  0  0  0  0
    1.2990    0.7500    0.0000 C   0  0  0  0  0  0  0  0  0  0  0  0
    0.0000    0.0000    0.0000 C   0  0  0  0  0  0  0  0  0  0  0  0
   -1.2990    0.7500    0.0000 O   0  0  0  0  0  0  0  0  0  0  0  0
    2.5981   -0.0000    0.0000 C   0  0  0  0  0  0  0  0  0  0  0  0
    3.8971    0.7500    0.0000 N   0  0  0  0  0  0  0  0  0  0  0  0
    5.1962   -0.0000    0.0000 C   0  0  0  0  0  0  0  0  0  0  0  0
    5.1962   -1.5000    0.0000 C   0  0  0  0  0  0  0  0  0  0  0  0
    3.8971   -2.2500    0.0000 O   0  0  0  0  0  0  0  0  0  0  0  0
    6.4952   -2.2500    0.0000 O   0  0  0  0  0  0  0  0  0  0  0  0
    3.8971    2.2500    0.0000 C   0  0  0  0  0  0  0  0  0  0  0  0
    5.1962    3.0000    0.0000 C   0  0  0  0  0  0  0  0  0  0  0  0
    5.1962    4.5000    0.0000 O   0  0  0  0  0  0  0  0  0  0  0  0
    6.4952    2.2500    0.0000 O   0  0  0  0  0  0  0  0  0  0  0  0
  1  2  1  0
  2  3  1  0
  3  4  1  0
  2  5  1  0
  5  6  1  0
  6  7  1  0
  7  8  1  0
  8  9  2  0
  8 10  1  0
  6 11  1  0
 11 12  1  0
 12 13  2  0
 12 14  1  0
M  END
>  <Name>  (23) 
DL-N-(2,3-Dihydroxypropyl)iminodiacetic_acid

>  <logK_Ce_z=3.0_T=20_I=0.1>  (23) 
7.84

$$$$

     RDKit          2D

 13 12  0  0  0  0  0  0  0  0999 V2000
    1.2990    0.7500    0.0000 O   0  0  0  0  0  0  0  0  0  0  0  0
    0.0000    0.0000    0.0000 C   0  0  0  0  0  0  0  0  0  0  0  0
    2.5981   -0.0000    0.0000 C   0  0  0  0  0  0  0  0  0  0  0  0
    3.8971    0.7500    0.0000 C   0  0  0  0  0  0  0  0  0  0  0  0
    5.1962   -0.0000    0.0000 N   0  0  0  0  0  0  0  0  0  0  0  0
    6.4952    0.7500    0.0000 C   0  0  0  0  0  0  0  0  0  0  0  0
    7.7942   -0.0000    0.0000 C   0  0  0  0  0  0  0  0  0  0  0  0
    7.7942   -1.5000    0.0000 O   0  0  0  0  0  0  0  0  0  0  0  0
    9.0933    0.7500    0.0000 O   0  0  0  0  0  0  0  0  0  0  0  0
    5.1962   -1.5000    0.0000 C   0  0  0  0  0  0  0  0  0  0  0  0
    3.8971   -2.2500    0.0000 C   0  0  0  0  0  0  0  0  0  0  0  0
    2.5981   -1.5000    0.0000 O   0  0  0  0  0  0  0  0  0  0  0  0
    3.8971   -3.7500    0.0000 O   0  0  0  0  0  0  0  0  0  0  0  0
  1  2  1  0
  1  3  1  0
  3  4  1  0
  4  5  1  0
  5  6  1  0
  6  7  1  0
  7  8  2  0
  7  9  1  0
  5 10  1  0
 10 11  1  0
 11 12  2  0
 11 13  1  0
M  END
>  <Name>  (24) 
N-(2-Methoxyethyl)iminodiacetic_acid

>  <logK_Ce_z=3.0_T=25_I=0.1>  (24) 
7.54

$$$$

     RDKit          2D

 13 12  0  0  0  0  0  0  0  0999 V2000
    1.2990    0.7500    0.0000 S   0  0  0  0  0  0  0  0  0  0  0  0
    0.0000    0.0000    0.0000 C   0  0  0  0  0  0  0  0  0  0  0  0
    2.5981   -0.0000    0.0000 C   0  0  0  0  0  0  0  0  0  0  0  0
    3.8971    0.7500    0.0000 C   0  0  0  0  0  0  0  0  0  0  0  0
    5.1962   -0.0000    0.0000 N   0  0  0  0  0  0  0  0  0  0  0  0
    6.4952    0.7500    0.0000 C   0  0  0  0  0  0  0  0  0  0  0  0
    7.7942   -0.0000    0.0000 C   0  0  0  0  0  0  0  0  0  0  0  0
    7.7942   -1.5000    0.0000 O   0  0  0  0  0  0  0  0  0  0  0  0
    9.0933    0.7500    0.0000 O   0  0  0  0  0  0  0  0  0  0  0  0
    5.1962   -1.5000    0.0000 C   0  0  0  0  0  0  0  0  0  0  0  0
    3.8971   -2.2500    0.0000 C   0  0  0  0  0  0  0  0  0  0  0  0
    2.5981   -1.5000    0.0000 O   0  0  0  0  0  0  0  0  0  0  0  0
    3.8971   -3.7500    0.0000 O   0  0  0  0  0  0  0  0  0  0  0  0
  1  2  1  0
  1  3  1  0
  3  4  1  0
  4  5  1  0
  5  6  1  0
  6  7  1  0
  7  8  2  0
  7  9  1  0
  5 10  1  0
 10 11  1  0
 11 12  2  0
 11 13  1  0
M  END
>  <Name>  (25) 
N-[2-(Methylthio)ethyl]iminodiacetic_acid

>  <logK_Ce_z=3.0_T=25_I=0.1>  (25) 
5.92

$$$$

     RDKit          2D

 19 18  0  0  0  0  0  0  0  0999 V2000
   -1.2990    0.7500    0.0000 O   0  0  0  0  0  0  0  0  0  0  0  0
    0.0000    0.0000    0.0000 C   0  0  0  0  0  0  0  0  0  0  0  0
    1.2990    0.7500    0.0000 C   0  0  0  0  0  0  0  0  0  0  0  0
    2.5981   -0.0000    0.0000 N   0  0  0  0  0  0  0  0  0  0  0  0
    3.8971    0.7500    0.0000 C   0  0  0  0  0  0  0  0  0  0  0  0
    5.1962   -0.0000    0.0000 C   0  0  0  0  0  0  0  0  0  0  0  0
    6.4952    0.7500    0.0000 N   0  0  0  0  0  0  0  0  0  0  0  0
    7.7942   -0.0000    0.0000 C   0  0  0  0  0  0  0  0  0  0  0  0
    9.0933    0.7500    0.0000 C   0  0  0  0  0  0  0  0  0  0  0  0
   10.3923   -0.0000    0.0000 O   0  0  0  0  0  0  0  0  0  0  0  0
    9.0933    2.2500    0.0000 O   0  0  0  0  0  0  0  0  0  0  0  0
    6.4952    2.2500    0.0000 C   0  0  0  0  0  0  0  0  0  0  0  0
    5.1962    3.0000    0.0000 C   0  0  0  0  0  0  0  0  0  0  0  0
    5.1962    4.5000    0.0000 O   0  0  0  0  0  0  0  0  0  0  0  0
    3.8971    2.2500    0.0000 O   0  0  0  0  0  0  0  0  0  0  0  0
    2.5981   -1.5000    0.0000 C   0  0  0  0  0  0  0  0  0  0  0  0
    3.8971   -2.2500    0.0000 C   0  0  0  0  0  0  0  0  0  0  0  0
    3.8971   -3.7500    0.0000 O   0  0  0  0  0  0  0  0  0  0  0  0
    5.1962   -1.5000    0.0000 O   0  0  0  0  0  0  0  0  0  0  0  0
  1  2  1  0
  2  3  1  0
  3  4  1  0
  4  5  1  0
  5  6  1  0
  6  7  1  0
  7  8  1  0
  8  9  1  0
  9 10  1  0
  9 11  2  0
  7 12  1  0
 12 13  1  0
 13 14  1  0
 13 15  2  0
  4 16  1  0
 16 17  1  0
 17 18  1  0
 17 19  2  0
M  END
>  <Name>  (26) 
N-(2-Hydroxyethyl)ethylenedinitrilotriacetic_acid_(HEDTA)

>  <logK_Ce_z=3.0_T=25_I=0.1>  (26) 
14.09

>  <logK_Ce_z=3.0_T=25_I=0.5>  (26) 
13.56

$$$$

     RDKit          2D

 20 19  0  0  0  0  0  0  0  0999 V2000
   -1.2990    0.7500    0.0000 N   0  0  0  0  0  0  0  0  0  0  0  0
    0.0000    0.0000    0.0000 C   0  0  0  0  0  0  0  0  0  0  0  0
    1.2990    0.7500    0.0000 C   0  0  0  0  0  0  0  0  0  0  0  0
    1.2990    2.2500    0.0000 O   0  0  0  0  0  0  0  0  0  0  0  0
    2.5981   -0.0000    0.0000 O   0  0  0  0  0  0  0  0  0  0  0  0
   -1.2990    2.2500    0.0000 C   0  0  0  0  0  0  0  0  0  0  0  0
   -2.5981    3.0000    0.0000 C   0  0  0  0  0  0  0  0  0  0  0  0
   -3.8971    2.2500    0.0000 O   0  0  0  0  0  0  0  0  0  0  0  0
   -2.5981    4.5000    0.0000 O   0  0  0  0  0  0  0  0  0  0  0  0
   -2.5981    0.0000    0.0000 C   0  0  0  0  0  0  0  0  0  0  0  0
   -3.8971    0.7500    0.0000 C   0  0  0  0  0  0  0  0  0  0  0  0
   -5.1962    0.0000    0.0000 N   0  0  0  0  0  0  0  0  0  0  0  0
   -6.4952    0.7500    0.0000 C   0  0  0  0  0  0  0  0  0  0  0  0
   -7.7942    0.0000    0.0000 C   0  0  0  0  0  0  0  0  0  0  0  0
   -7.7942   -1.5000    0.0000 O   0  0  0  0  0  0  0  0  0  0  0  0
   -9.0933    0.7500    0.0000 O   0  0  0  0  0  0  0  0  0  0  0  0
   -5.1962   -1.5000    0.0000 C   0  0  0  0  0  0  0  0  0  0  0  0
   -3.8971   -2.2500    0.0000 C   0  0  0  0  0  0  0  0  0  0  0  0
   -2.5981   -1.5000    0.0000 O   0  0  0  0  0  0  0  0  0  0  0  0
   -3.8971   -3.7500    0.0000 O   0  0  0  0  0  0  0  0  0  0  0  0
  1  2  1  0
  2  3  1  0
  3  4  2  0
  3  5  1  0
  1  6  1  0
  6  7  1  0
  7  8  2  0
  7  9  1  0
  1 10  1  0
 10 11  1  0
 11 12  1  0
 12 13  1  0
 13 14  1  0
 14 15  2  0
 14 16  1  0
 12 17  1  0
 17 18  1  0
 18 19  2  0
 18 20  1  0
M  END
>  <Name>  (27) 
Ethylenedinitrilotetraacetic_acid_(EDTA)

>  <logK_Ce_z=3.0_T=25_I=0.1>  (27) 
15.93

>  <logK_Ce_z=3.0_T=25_I=0.5>  (27) 
15.04

$$$$

     RDKit          2D

 21 20  0  0  0  0  0  0  0  0999 V2000
    0.0000    0.0000    0.0000 C   0  0  0  0  0  0  0  0  0  0  0  0
    1.2990    0.7500    0.0000 C   0  0  0  0  0  0  0  0  0  0  0  0
    2.5981   -0.0000    0.0000 C   0  0  0  0  0  0  0  0  0  0  0  0
    3.8971    0.7500    0.0000 N   0  0  0  0  0  0  0  0  0  0  0  0
    5.1962   -0.0000    0.0000 C   0  0  0  0  0  0  0  0  0  0  0  0
    5.1962   -1.5000    0.0000 C   0  0  0  0  0  0  0  0  0  0  0  0
    6.4952   -2.2500    0.0000 O   0  0  0  0  0  0  0  0  0  0  0  0
    3.8971   -2.2500    0.0000 O   0  0  0  0  0  0  0  0  0  0  0  0
    3.8971    2.2500    0.0000 C   0  0  0  0  0  0  0  0  0  0  0  0
    5.1962    3.0000    0.0000 C   0  0  0  0  0  0  0  0  0  0  0  0
    5.1962    4.5000    0.0000 O   0  0  0  0  0  0  0  0  0  0  0  0
    6.4952    2.2500    0.0000 O   0  0  0  0  0  0  0  0  0  0  0  0
    1.2990    2.2500    0.0000 N   0  0  0  0  0  0  0  0  0  0  0  0
    2.5981    3.0000    0.0000 C   0  0  0  0  0  0  0  0  0  0  0  0
    2.5981    4.5000    0.0000 C   0  0  0  0  0  0  0  0  0  0  0  0
    3.8971    5.2500    0.0000 O   0  0  0  0  0  0  0  0  0  0  0  0
    1.2990    5.2500    0.0000 O   0  0  0  0  0  0  0  0  0  0  0  0
   -0.0000    3.0000    0.0000 C   0  0  0  0  0  0  0  0  0  0  0  0
   -1.2990    2.2500    0.0000 C   0  0  0  0  0  0  0  0  0  0  0  0
   -2.5981    3.0000    0.0000 O   0  0  0  0  0  0  0  0  0  0  0  0
   -1.2990    0.7500    0.0000 O   0  0  0  0  0  0  0  0  0  0  0  0
  1  2  1  0
  2  3  1  0
  3  4  1  0
  4  5  1  0
  5  6  1  0
  6  7  1  0
  6  8  2  0
  4  9  1  0
  9 10  1  0
 10 11  1  0
 10 12  2  0
  2 13  1  0
 13 14  1  0
 14 15  1  0
 15 16  1  0
 15 17  2  0
 13 18  1  0
 18 19  1  0
 19 20  1  0
 19 21  2  0
M  END
>  <Name>  (28) 
DL-(Methylethylene)dinitrilotetraacetic_acid_(PDTA)

>  <logK_Ce_z=3.0_T=20_I=0.1>  (28) 
16.83

$$$$

     RDKit          2D

 22 21  0  0  0  0  0  0  0  0999 V2000
    0.0000    0.0000    0.0000 C   0  0  0  0  0  0  0  0  0  0  0  0
    1.2990    0.7500    0.0000 C   0  0  0  0  0  0  0  0  0  0  0  0
    2.0490   -0.5490    0.0000 C   0  0  0  0  0  0  0  0  0  0  0  0
    1.2990   -1.8481    0.0000 N   0  0  0  0  0  0  0  0  0  0  0  0
   -0.2010   -1.8481    0.0000 C   0  0  0  0  0  0  0  0  0  0  0  0
   -0.9510   -3.1471    0.0000 C   0  0  0  0  0  0  0  0  0  0  0  0
   -0.2010   -4.4462    0.0000 O   0  0  0  0  0  0  0  0  0  0  0  0
   -2.4510   -3.1471    0.0000 O   0  0  0  0  0  0  0  0  0  0  0  0
    2.0490   -3.1471    0.0000 C   0  0  0  0  0  0  0  0  0  0  0  0
    3.5490   -3.1471    0.0000 C   0  0  0  0  0  0  0  0  0  0  0  0
    4.2990   -4.4462    0.0000 O   0  0  0  0  0  0  0  0  0  0  0  0
    4.2990   -1.8481    0.0000 O   0  0  0  0  0  0  0  0  0  0  0  0
    2.5981    1.5000    0.0000 C   0  0  0  0  0  0  0  0  0  0  0  0
    0.5490    2.0490    0.0000 N   0  0  0  0  0  0  0  0  0  0  0  0
    1.2990    3.3481    0.0000 C   0  0  0  0  0  0  0  0  0  0  0  0
    0.5490    4.6471    0.0000 C   0  0  0  0  0  0  0  0  0  0  0  0
   -0.9510    4.6471    0.0000 O   0  0  0  0  0  0  0  0  0  0  0  0
    1.2990    5.9462    0.0000 O   0  0  0  0  0  0  0  0  0  0  0  0
   -0.9510    2.0490    0.0000 C   0  0  0  0  0  0  0  0  0  0  0  0
   -1.7010    0.7500    0.0000 C   0  0  0  0  0  0  0  0  0  0  0  0
   -0.9510   -0.5490    0.0000 O   0  0  0  0  0  0  0  0  0  0  0  0
   -3.2010    0.7500    0.0000 O   0  0  0  0  0  0  0  0  0  0  0  0
  1  2  1  0
  2  3  1  0
  3  4  1  0
  4  5  1  0
  5  6  1  0
  6  7  2  0
  6  8  1  0
  4  9  1  0
  9 10  1  0
 10 11  2  0
 10 12  1  0
  2 13  1  0
  2 14  1  0
 14 15  1  0
 15 16  1  0
 16 17  2  0
 16 18  1  0
 14 19  1  0
 19 20  1  0
 20 21  2  0
 20 22  1  0
M  END
>  <Name>  (29) 
(1,1-Dimethylethylene)dinitrilotetraacetic_acid

>  <logK_Ce_z=3.0_T=20_I=0.1>  (29) 
16.05

$$$$

     RDKit          2D

 22 21  0  0  0  0  0  0  0  0999 V2000
    0.0000    0.0000    0.0000 C   0  0  0  0  0  0  0  0  0  0  0  0
    1.2990    0.7500    0.0000 C   0  0  0  0  0  0  0  0  0  0  0  0
    1.2990    2.2500    0.0000 N   0  0  0  0  0  0  0  0  0  0  0  0
    2.5981    3.0000    0.0000 C   0  0  0  0  0  0  0  0  0  0  0  0
    2.5981    4.5000    0.0000 C   0  0  0  0  0  0  0  0  0  0  0  0
    3.8971    5.2500    0.0000 O   0  0  0  0  0  0  0  0  0  0  0  0
    1.2990    5.2500    0.0000 O   0  0  0  0  0  0  0  0  0  0  0  0
   -0.0000    3.0000    0.0000 C   0  0  0  0  0  0  0  0  0  0  0  0
   -1.2990    2.2500    0.0000 C   0  0  0  0  0  0  0  0  0  0  0  0
   -2.5981    3.0000    0.0000 O   0  0  0  0  0  0  0  0  0  0  0  0
   -1.2990    0.7500    0.0000 O   0  0  0  0  0  0  0  0  0  0  0  0
    2.5981   -0.0000    0.0000 C   0  0  0  0  0  0  0  0  0  0  0  0
    2.5981   -1.5000    0.0000 N   0  0  0  0  0  0  0  0  0  0  0  0
    3.8971   -2.2500    0.0000 C   0  0  0  0  0  0  0  0  0  0  0  0
    5.1962   -1.5000    0.0000 C   0  0  0  0  0  0  0  0  0  0  0  0
    6.4952   -2.2500    0.0000 O   0  0  0  0  0  0  0  0  0  0  0  0
    5.1962    0.0000    0.0000 O   0  0  0  0  0  0  0  0  0  0  0  0
    1.2990   -2.2500    0.0000 C   0  0  0  0  0  0  0  0  0  0  0  0
    1.2990   -3.7500    0.0000 C   0  0  0  0  0  0  0  0  0  0  0  0
   -0.0000   -4.5000    0.0000 O   0  0  0  0  0  0  0  0  0  0  0  0
    2.5981   -4.5000    0.0000 O   0  0  0  0  0  0  0  0  0  0  0  0
    3.8971    0.7500    0.0000 C   0  0  0  0  0  0  0  0  0  0  0  0
  1  2  1  0
  2  3  1  0
  3  4  1  0
  4  5  1  0
  5  6  1  0
  5  7  2  0
  3  8  1  0
  8  9  1  0
  9 10  1  0
  9 11  2  0
  2 12  1  0
 12 13  1  0
 13 14  1  0
 14 15  1  0
 15 16  1  0
 15 17  2  0
 13 18  1  0
 18 19  1  0
 19 20  1  0
 19 21  2  0
 12 22  1  0
M  END
>  <Name>  (30) 
rac-(1,2-Dimethylethylene)dinitrilotetraacetic_acid

>  <logK_Ce_z=3.0_T=20_I=0.1>  (30) 
17.08

$$$$

     RDKit          2D

 24 24  0  0  0  0  0  0  0  0999 V2000
    3.7500   -3.8971    0.0000 O   0  0  0  0  0  0  0  0  0  0  0  0
    3.0000   -2.5981    0.0000 C   0  0  0  0  0  0  0  0  0  0  0  0
    1.5000   -2.5981    0.0000 O   0  0  0  0  0  0  0  0  0  0  0  0
    3.7500   -1.2990    0.0000 C   0  0  0  0  0  0  0  0  0  0  0  0
    3.0000    0.0000    0.0000 N   0  0  0  0  0  0  0  0  0  0  0  0
    3.7500    1.2990    0.0000 C   0  0  0  0  0  0  0  0  0  0  0  0
    5.2500    1.2990    0.0000 C   0  0  0  0  0  0  0  0  0  0  0  0
    6.0000    2.5981    0.0000 O   0  0  0  0  0  0  0  0  0  0  0  0
    6.0000    0.0000    0.0000 O   0  0  0  0  0  0  0  0  0  0  0  0
    1.5000    0.0000    0.0000 C   0  0  0  0  0  0  0  0  0  0  0  0
    0.7500   -1.2990    0.0000 C   0  0  0  0  0  0  0  0  0  0  0  0
   -0.7500   -1.2990    0.0000 C   0  0  0  0  0  0  0  0  0  0  0  0
   -1.5000    0.0000    0.0000 C   0  0  0  0  0  0  0  0  0  0  0  0
   -0.7500    1.2990    0.0000 C   0  0  0  0  0  0  0  0  0  0  0  0
    0.7500    1.2990    0.0000 C   0  0  0  0  0  0  0  0  0  0  0  0
    1.5000    2.5981    0.0000 N   0  0  0  0  0  0  0  0  0  0  0  0
    0.7500    3.8971    0.0000 C   0  0  0  0  0  0  0  0  0  0  0  0
   -0.7500    3.8971    0.0000 C   0  0  0  0  0  0  0  0  0  0  0  0
   -1.5000    5.1962    0.0000 O   0  0  0  0  0  0  0  0  0  0  0  0
   -1.5000    2.5981    0.0000 O   0  0  0  0  0  0  0  0  0  0  0  0
    3.0000    2.5981    0.0000 C   0  0  0  0  0  0  0  0  0  0  0  0
    3.7500    3.8971    0.0000 C   0  0  0  0  0  0  0  0  0  0  0  0
    5.2500    3.8971    0.0000 O   0  0  0  0  0  0  0  0  0  0  0  0
    3.0000    5.1962    0.0000 O   0  0  0  0  0  0  0  0  0  0  0  0
  1  2  1  0
  2  3  2  0
  2  4  1  0
  4  5  1  0
  5  6  1  0
  6  7  1  0
  7  8  1  0
  7  9  2  0
  5 10  1  0
 10 11  1  0
 11 12  1  0
 12 13  1  0
 13 14  1  0
 14 15  1  0
 15 16  1  0
 16 17  1  0
 17 18  1  0
 18 19  1  0
 18 20  2  0
 16 21  1  0
 21 22  1  0
 22 23  1  0
 22 24  2  0
 15 10  1  0
M  END
>  <Name>  (31) 
trans-1,2-Cyclohexylenedinitrilotetraacetic_acid_(CDTA)

>  <logK_Ce_z=3.0_T=20_I=0.1>  (31) 
17.6

>  <logK_Ce_z=3.0_T=25_I=0.5>  (31) 
16.59

>  <logK_Ce_z=3.0_T=25_I=1.0>  (31) 
16.97

$$$$

     RDKit          2D

 21 20  0  0  0  0  0  0  0  0999 V2000
    1.2990    0.7500    0.0000 C   0  0  0  0  0  0  0  0  0  0  0  0
    2.5981   -0.0000    0.0000 O   0  0  0  0  0  0  0  0  0  0  0  0
    1.2990    2.2500    0.0000 O   0  0  0  0  0  0  0  0  0  0  0  0
    0.0000    0.0000    0.0000 C   0  0  0  0  0  0  0  0  0  0  0  0
   -1.2990    0.7500    0.0000 N   0  0  0  0  0  0  0  0  0  0  0  0
   -2.5981    0.0000    0.0000 C   0  0  0  0  0  0  0  0  0  0  0  0
   -3.8971    0.7500    0.0000 C   0  0  0  0  0  0  0  0  0  0  0  0
   -5.1962    0.0000    0.0000 C   0  0  0  0  0  0  0  0  0  0  0  0
   -6.4952    0.7500    0.0000 N   0  0  0  0  0  0  0  0  0  0  0  0
   -7.7942    0.0000    0.0000 C   0  0  0  0  0  0  0  0  0  0  0  0
   -7.7942   -1.5000    0.0000 C   0  0  0  0  0  0  0  0  0  0  0  0
   -9.0933   -2.2500    0.0000 O   0  0  0  0  0  0  0  0  0  0  0  0
   -6.4952   -2.2500    0.0000 O   0  0  0  0  0  0  0  0  0  0  0  0
   -6.4952    2.2500    0.0000 C   0  0  0  0  0  0  0  0  0  0  0  0
   -7.7942    3.0000    0.0000 C   0  0  0  0  0  0  0  0  0  0  0  0
   -7.7942    4.5000    0.0000 O   0  0  0  0  0  0  0  0  0  0  0  0
   -9.0933    2.2500    0.0000 O   0  0  0  0  0  0  0  0  0  0  0  0
   -1.2990    2.2500    0.0000 C   0  0  0  0  0  0  0  0  0  0  0  0
   -2.5981    3.0000    0.0000 C   0  0  0  0  0  0  0  0  0  0  0  0
   -2.5981    4.5000    0.0000 O   0  0  0  0  0  0  0  0  0  0  0  0
   -3.8971    2.2500    0.0000 O   0  0  0  0  0  0  0  0  0  0  0  0
  1  2  1  0
  1  3  2  0
  1  4  1  0
  4  5  1  0
  5  6  1  0
  6  7  1  0
  7  8  1  0
  8  9  1  0
  9 10  1  0
 10 11  1  0
 11 12  1  0
 11 13  2  0
  9 14  1  0
 14 15  1  0
 15 16  1  0
 15 17  2  0
  5 18  1  0
 18 19  1  0
 19 20  1  0
 19 21  2  0
M  END
>  <Name>  (32) 
Trimethylenedinitrilotetraacetic_acid_(TMDTA)

>  <logK_Ce_z=3.0_T=25_I=0.1>  (32) 
11.7

>  <logK_Ce_z=3.0_T=20_I=0.1>  (32) 
11.65

$$$$

     RDKit          2D

 23 22  0  0  0  0  0  0  0  0999 V2000
    2.5981   -0.0000    0.0000 O   0  0  0  0  0  0  0  0  0  0  0  0
    1.2990    0.7500    0.0000 C   0  0  0  0  0  0  0  0  0  0  0  0
    0.0000    0.0000    0.0000 C   0  0  0  0  0  0  0  0  0  0  0  0
   -1.2990    0.7500    0.0000 N   0  0  0  0  0  0  0  0  0  0  0  0
   -1.2990    2.2500    0.0000 C   0  0  0  0  0  0  0  0  0  0  0  0
   -2.5981    3.0000    0.0000 C   0  0  0  0  0  0  0  0  0  0  0  0
   -3.8971    2.2500    0.0000 O   0  0  0  0  0  0  0  0  0  0  0  0
   -2.5981    4.5000    0.0000 O   0  0  0  0  0  0  0  0  0  0  0  0
   -2.5981    0.0000    0.0000 C   0  0  0  0  0  0  0  0  0  0  0  0
   -3.8971    0.7500    0.0000 C   0  0  0  0  0  0  0  0  0  0  0  0
   -5.1962    0.0000    0.0000 C   0  0  0  0  0  0  0  0  0  0  0  0
   -6.4952    0.7500    0.0000 C   0  0  0  0  0  0  0  0  0  0  0  0
   -7.7942    0.0000    0.0000 C   0  0  0  0  0  0  0  0  0  0  0  0
   -9.0933    0.7500    0.0000 N   0  0  0  0  0  0  0  0  0  0  0  0
  -10.3923    0.0000    0.0000 C   0  0  0  0  0  0  0  0  0  0  0  0
  -11.6913    0.7500    0.0000 C   0  0  0  0  0  0  0  0  0  0  0  0
  -11.6913    2.2500    0.0000 O   0  0  0  0  0  0  0  0  0  0  0  0
  -12.9904    0.0000    0.0000 O   0  0  0  0  0  0  0  0  0  0  0  0
   -9.0933    2.2500    0.0000 C   0  0  0  0  0  0  0  0  0  0  0  0
   -7.7942    3.0000    0.0000 C   0  0  0  0  0  0  0  0  0  0  0  0
   -6.4952    2.2500    0.0000 O   0  0  0  0  0  0  0  0  0  0  0  0
   -7.7942    4.5000    0.0000 O   0  0  0  0  0  0  0  0  0  0  0  0
    1.2990    2.2500    0.0000 O   0  0  0  0  0  0  0  0  0  0  0  0
  1  2  1  0
  2  3  1  0
  3  4  1  0
  4  5  1  0
  5  6  1  0
  6  7  2  0
  6  8  1  0
  4  9  1  0
  9 10  1  0
 10 11  1  0
 11 12  1  0
 12 13  1  0
 13 14  1  0
 14 15  1  0
 15 16  1  0
 16 17  2  0
 16 18  1  0
 14 19  1  0
 19 20  1  0
 20 21  2  0
 20 22  1  0
  2 23  2  0
M  END
>  <Name>  (33) 
Pentamethylenedinitrilotetraacetic_acid

>  <logK_Ce_z=3.0_T=25_I=0.1>  (33) 
9.75

$$$$

     RDKit          2D

 24 23  0  0  0  0  0  0  0  0999 V2000
    0.0000    0.0000    0.0000 C   0  0  0  0  0  0  0  0  0  0  0  0
   -1.2990    0.7500    0.0000 C   0  0  0  0  0  0  0  0  0  0  0  0
   -2.5981    0.0000    0.0000 C   0  0  0  0  0  0  0  0  0  0  0  0
   -3.8971    0.7500    0.0000 N   0  0  0  0  0  0  0  0  0  0  0  0
   -5.1962    0.0000    0.0000 C   0  0  0  0  0  0  0  0  0  0  0  0
   -6.4952    0.7500    0.0000 C   0  0  0  0  0  0  0  0  0  0  0  0
   -7.7942    0.0000    0.0000 O   0  0  0  0  0  0  0  0  0  0  0  0
   -6.4952    2.2500    0.0000 O   0  0  0  0  0  0  0  0  0  0  0  0
   -3.8971    2.2500    0.0000 C   0  0  0  0  0  0  0  0  0  0  0  0
   -2.5981    3.0000    0.0000 C   0  0  0  0  0  0  0  0  0  0  0  0
   -1.2990    2.2500    0.0000 O   0  0  0  0  0  0  0  0  0  0  0  0
   -2.5981    4.5000    0.0000 O   0  0  0  0  0  0  0  0  0  0  0  0
    1.2990    0.7500    0.0000 C   0  0  0  0  0  0  0  0  0  0  0  0
    2.5981   -0.0000    0.0000 C   0  0  0  0  0  0  0  0  0  0  0  0
    3.8971    0.7500    0.0000 C   0  0  0  0  0  0  0  0  0  0  0  0
    5.1962   -0.0000    0.0000 N   0  0  0  0  0  0  0  0  0  0  0  0
    6.4952    0.7500    0.0000 C   0  0  0  0  0  0  0  0  0  0  0  0
    7.7942   -0.0000    0.0000 C   0  0  0  0  0  0  0  0  0  0  0  0
    9.0933    0.7500    0.0000 O   0  0  0  0  0  0  0  0  0  0  0  0
    7.7942   -1.5000    0.0000 O   0  0  0  0  0  0  0  0  0  0  0  0
    5.1962   -1.5000    0.0000 C   0  0  0  0  0  0  0  0  0  0  0  0
    3.8971   -2.2500    0.0000 C   0  0  0  0  0  0  0  0  0  0  0  0
    3.8971   -3.7500    0.0000 O   0  0  0  0  0  0  0  0  0  0  0  0
    2.5981   -1.5000    0.0000 O   0  0  0  0  0  0  0  0  0  0  0  0
  1  2  1  0
  2  3  1  0
  3  4  1  0
  4  5  1  0
  5  6  1  0
  6  7  1  0
  6  8  2  0
  4  9  1  0
  9 10  1  0
 10 11  1  0
 10 12  2  0
  1 13  1  0
 13 14  1  0
 14 15  1  0
 15 16  1  0
 16 17  1  0
 17 18  1  0
 18 19  1  0
 18 20  2  0
 16 21  1  0
 21 22  1  0
 22 23  1  0
 22 24  2  0
M  END
>  <Name>  (34) 
Hexamethylenedinitrilotetraacetic_acid

>  <logK_Ce_z=3.0_T=25_I=1.0>  (34) 
8.23

$$$$

     RDKit          2D

 23 22  0  0  0  0  0  0  0  0999 V2000
    1.2990    2.2500    0.0000 C   0  0  0  0  0  0  0  0  0  0  0  0
    1.2990    0.7500    0.0000 C   0  0  0  0  0  0  0  0  0  0  0  0
    2.5981   -0.0000    0.0000 C   0  0  0  0  0  0  0  0  0  0  0  0
    3.8971    0.7500    0.0000 C   0  0  0  0  0  0  0  0  0  0  0  0
    5.1962   -0.0000    0.0000 C   0  0  0  0  0  0  0  0  0  0  0  0
    3.8971    2.2500    0.0000 N   0  0  0  0  0  0  0  0  0  0  0  0
    2.5981    3.0000    0.0000 C   0  0  0  0  0  0  0  0  0  0  0  0
    2.5981    4.5000    0.0000 C   0  0  0  0  0  0  0  0  0  0  0  0
    3.8971    5.2500    0.0000 O   0  0  0  0  0  0  0  0  0  0  0  0
    1.2990    5.2500    0.0000 O   0  0  0  0  0  0  0  0  0  0  0  0
    5.1962    3.0000    0.0000 C   0  0  0  0  0  0  0  0  0  0  0  0
    6.4952    2.2500    0.0000 C   0  0  0  0  0  0  0  0  0  0  0  0
    6.4952    0.7500    0.0000 O   0  0  0  0  0  0  0  0  0  0  0  0
    7.7942    3.0000    0.0000 O   0  0  0  0  0  0  0  0  0  0  0  0
   -0.0000   -0.0000    0.0000 N   0  0  0  0  0  0  0  0  0  0  0  0
   -1.2990    0.7500    0.0000 C   0  0  0  0  0  0  0  0  0  0  0  0
   -1.2990    2.2500    0.0000 C   0  0  0  0  0  0  0  0  0  0  0  0
   -0.0000    3.0000    0.0000 O   0  0  0  0  0  0  0  0  0  0  0  0
   -2.5981    3.0000    0.0000 O   0  0  0  0  0  0  0  0  0  0  0  0
    0.0000   -1.5000    0.0000 C   0  0  0  0  0  0  0  0  0  0  0  0
   -1.2990   -2.2500    0.0000 C   0  0  0  0  0  0  0  0  0  0  0  0
   -2.5981   -1.5000    0.0000 O   0  0  0  0  0  0  0  0  0  0  0  0
   -1.2990   -3.7500    0.0000 O   0  0  0  0  0  0  0  0  0  0  0  0
  1  2  1  0
  2  3  1  0
  3  4  1  0
  4  5  1  0
  4  6  1  0
  6  7  1  0
  7  8  1  0
  8  9  2  0
  8 10  1  0
  6 11  1  0
 11 12  1  0
 12 13  2  0
 12 14  1  0
  2 15  1  0
 15 16  1  0
 16 17  1  0
 17 18  2  0
 17 19  1  0
 15 20  1  0
 20 21  1  0
 21 22  2  0
 21 23  1  0
M  END
>  <Name>  (35) 
rac-(1,3-Dimethyltrimethylene)dinitrilotetraacetic_acid

>  <logK_Ce_z=3.0_T=20_I=0.1>  (35) 
10.65

$$$$

     RDKit          2D

 22 21  0  0  0  0  0  0  0  0999 V2000
   -0.0000   -1.5000    0.0000 C   0  0  0  0  0  0  0  0  0  0  0  0
    1.2990   -2.2500    0.0000 O   0  0  0  0  0  0  0  0  0  0  0  0
   -1.2990   -2.2500    0.0000 O   0  0  0  0  0  0  0  0  0  0  0  0
    0.0000    0.0000    0.0000 C   0  0  0  0  0  0  0  0  0  0  0  0
   -1.2990    0.7500    0.0000 N   0  0  0  0  0  0  0  0  0  0  0  0
   -2.5981    0.0000    0.0000 C   0  0  0  0  0  0  0  0  0  0  0  0
   -3.8971    0.7500    0.0000 C   0  0  0  0  0  0  0  0  0  0  0  0
   -3.8971    2.2500    0.0000 O   0  0  0  0  0  0  0  0  0  0  0  0
   -5.1962    0.0000    0.0000 C   0  0  0  0  0  0  0  0  0  0  0  0
   -6.4952    0.7500    0.0000 N   0  0  0  0  0  0  0  0  0  0  0  0
   -7.7942    0.0000    0.0000 C   0  0  0  0  0  0  0  0  0  0  0  0
   -7.7942   -1.5000    0.0000 C   0  0  0  0  0  0  0  0  0  0  0  0
   -9.0933   -2.2500    0.0000 O   0  0  0  0  0  0  0  0  0  0  0  0
   -6.4952   -2.2500    0.0000 O   0  0  0  0  0  0  0  0  0  0  0  0
   -6.4952    2.2500    0.0000 C   0  0  0  0  0  0  0  0  0  0  0  0
   -7.7942    3.0000    0.0000 C   0  0  0  0  0  0  0  0  0  0  0  0
   -7.7942    4.5000    0.0000 O   0  0  0  0  0  0  0  0  0  0  0  0
   -9.0933    2.2500    0.0000 O   0  0  0  0  0  0  0  0  0  0  0  0
   -1.2990    2.2500    0.0000 C   0  0  0  0  0  0  0  0  0  0  0  0
    0.0000    3.0000    0.0000 C   0  0  0  0  0  0  0  0  0  0  0  0
    0.0000    4.5000    0.0000 O   0  0  0  0  0  0  0  0  0  0  0  0
    1.2990    2.2500    0.0000 O   0  0  0  0  0  0  0  0  0  0  0  0
  1  2  1  0
  1  3  2  0
  1  4  1  0
  4  5  1  0
  5  6  1  0
  6  7  1  0
  7  8  1  0
  7  9  1  0
  9 10  1  0
 10 11  1  0
 11 12  1  0
 12 13  1  0
 12 14  2  0
 10 15  1  0
 15 16  1  0
 16 17  1  0
 16 18  2  0
  5 19  1  0
 19 20  1  0
 20 21  1  0
 20 22  2  0
M  END
>  <Name>  (36) 
(2-Hydroxytrimethylene)dinitrilotetraacetic_acid

>  <logK_Ce_z=3.0_T=25_I=0.1>  (36) 
12.08

$$$$

     RDKit          2D

 25 24  0  0  0  0  0  0  0  0999 V2000
   -1.2990    0.7500    0.0000 O   0  0  0  0  0  0  0  0  0  0  0  0
    0.0000    0.0000    0.0000 C   0  0  0  0  0  0  0  0  0  0  0  0
    1.2990    0.7500    0.0000 C   0  0  0  0  0  0  0  0  0  0  0  0
    2.5981   -0.0000    0.0000 C   0  0  0  0  0  0  0  0  0  0  0  0
    3.8971    0.7500    0.0000 N   0  0  0  0  0  0  0  0  0  0  0  0
    5.1962   -0.0000    0.0000 C   0  0  0  0  0  0  0  0  0  0  0  0
    6.4952    0.7500    0.0000 C   0  0  0  0  0  0  0  0  0  0  0  0
    6.4952    2.2500    0.0000 O   0  0  0  0  0  0  0  0  0  0  0  0
    7.7942   -0.0000    0.0000 O   0  0  0  0  0  0  0  0  0  0  0  0
    3.8971    2.2500    0.0000 C   0  0  0  0  0  0  0  0  0  0  0  0
    2.5981    3.0000    0.0000 C   0  0  0  0  0  0  0  0  0  0  0  0
    2.5981    4.5000    0.0000 O   0  0  0  0  0  0  0  0  0  0  0  0
    1.2990    2.2500    0.0000 O   0  0  0  0  0  0  0  0  0  0  0  0
   -2.5981    0.0000    0.0000 C   0  0  0  0  0  0  0  0  0  0  0  0
   -3.8971    0.7500    0.0000 C   0  0  0  0  0  0  0  0  0  0  0  0
   -5.1962    0.0000    0.0000 C   0  0  0  0  0  0  0  0  0  0  0  0
   -6.4952    0.7500    0.0000 N   0  0  0  0  0  0  0  0  0  0  0  0
   -7.7942    0.0000    0.0000 C   0  0  0  0  0  0  0  0  0  0  0  0
   -9.0933    0.7500    0.0000 C   0  0  0  0  0  0  0  0  0  0  0  0
   -9.0933    2.2500    0.0000 O   0  0  0  0  0  0  0  0  0  0  0  0
  -10.3923    0.0000    0.0000 O   0  0  0  0  0  0  0  0  0  0  0  0
   -6.4952    2.2500    0.0000 C   0  0  0  0  0  0  0  0  0  0  0  0
   -5.1962    3.0000    0.0000 C   0  0  0  0  0  0  0  0  0  0  0  0
   -5.1962    4.5000    0.0000 O   0  0  0  0  0  0  0  0  0  0  0  0
   -3.8971    2.2500    0.0000 O   0  0  0  0  0  0  0  0  0  0  0  0
  1  2  1  0
  2  3  1  0
  3  4  1  0
  4  5  1  0
  5  6  1  0
  6  7  1  0
  7  8  2  0
  7  9  1  0
  5 10  1  0
 10 11  1  0
 11 12  2  0
 11 13  1  0
  1 14  1  0
 14 15  1  0
 15 16  1  0
 16 17  1  0
 17 18  1  0
 18 19  1  0
 19 20  2  0
 19 21  1  0
 17 22  1  0
 22 23  1  0
 23 24  2  0
 23 25  1  0
M  END
>  <Name>  (37) 
Oxybis(trimethylenenitrilo)tetraacetic_acid

>  <logK_Ce_z=3.0_T=25_I=0.1>  (37) 
11.27

$$$$

     RDKit          2D

 26 25  0  0  0  0  0  0  0  0999 V2000
    2.5981   -0.0000    0.0000 O   0  0  0  0  0  0  0  0  0  0  0  0
    1.2990    0.7500    0.0000 C   0  0  0  0  0  0  0  0  0  0  0  0
    0.0000    0.0000    0.0000 C   0  0  0  0  0  0  0  0  0  0  0  0
   -1.2990    0.7500    0.0000 N   0  0  0  0  0  0  0  0  0  0  0  0
   -1.2990    2.2500    0.0000 C   0  0  0  0  0  0  0  0  0  0  0  0
   -2.5981    3.0000    0.0000 C   0  0  0  0  0  0  0  0  0  0  0  0
   -3.8971    2.2500    0.0000 O   0  0  0  0  0  0  0  0  0  0  0  0
   -2.5981    4.5000    0.0000 O   0  0  0  0  0  0  0  0  0  0  0  0
   -2.5981    0.0000    0.0000 C   0  0  0  0  0  0  0  0  0  0  0  0
   -3.8971    0.7500    0.0000 C   0  0  0  0  0  0  0  0  0  0  0  0
   -5.1962    0.0000    0.0000 O   0  0  0  0  0  0  0  0  0  0  0  0
   -6.4952    0.7500    0.0000 C   0  0  0  0  0  0  0  0  0  0  0  0
   -7.7942    0.0000    0.0000 C   0  0  0  0  0  0  0  0  0  0  0  0
   -9.0933    0.7500    0.0000 O   0  0  0  0  0  0  0  0  0  0  0  0
  -10.3923    0.0000    0.0000 C   0  0  0  0  0  0  0  0  0  0  0  0
  -11.6913    0.7500    0.0000 C   0  0  0  0  0  0  0  0  0  0  0  0
  -12.9904    0.0000    0.0000 N   0  0  0  0  0  0  0  0  0  0  0  0
  -14.2894    0.7500    0.0000 C   0  0  0  0  0  0  0  0  0  0  0  0
  -15.5885    0.0000    0.0000 C   0  0  0  0  0  0  0  0  0  0  0  0
  -15.5885   -1.5000    0.0000 O   0  0  0  0  0  0  0  0  0  0  0  0
  -16.8875    0.7500    0.0000 O   0  0  0  0  0  0  0  0  0  0  0  0
  -12.9904   -1.5000    0.0000 C   0  0  0  0  0  0  0  0  0  0  0  0
  -11.6913   -2.2500    0.0000 C   0  0  0  0  0  0  0  0  0  0  0  0
  -10.3923   -1.5000    0.0000 O   0  0  0  0  0  0  0  0  0  0  0  0
  -11.6913   -3.7500    0.0000 O   0  0  0  0  0  0  0  0  0  0  0  0
    1.2990    2.2500    0.0000 O   0  0  0  0  0  0  0  0  0  0  0  0
  1  2  1  0
  2  3  1  0
  3  4  1  0
  4  5  1  0
  5  6  1  0
  6  7  2  0
  6  8  1  0
  4  9  1  0
  9 10  1  0
 10 11  1  0
 11 12  1  0
 12 13  1  0
 13 14  1  0
 14 15  1  0
 15 16  1  0
 16 17  1  0
 17 18  1  0
 18 19  1  0
 19 20  2  0
 19 21  1  0
 17 22  1  0
 22 23  1  0
 23 24  2  0
 23 25  1  0
  2 26  2  0
M  END
>  <Name>  (38) 
Ethylenebis(oxyethylenenitrilo)tetraacetic_acid_(EGTA)

>  <logK_Ce_z=3.0_T=20_I=0.1>  (38) 
15.95

$$$$

     RDKit          2D

 23 22  0  0  0  0  0  0  0  0999 V2000
   -1.2990    0.7500    0.0000 S   0  0  0  0  0  0  0  0  0  0  0  0
    0.0000    0.0000    0.0000 C   0  0  0  0  0  0  0  0  0  0  0  0
    1.2990    0.7500    0.0000 C   0  0  0  0  0  0  0  0  0  0  0  0
    2.5981   -0.0000    0.0000 N   0  0  0  0  0  0  0  0  0  0  0  0
    3.8971    0.7500    0.0000 C   0  0  0  0  0  0  0  0  0  0  0  0
    5.1962   -0.0000    0.0000 C   0  0  0  0  0  0  0  0  0  0  0  0
    5.1962   -1.5000    0.0000 O   0  0  0  0  0  0  0  0  0  0  0  0
    6.4952    0.7500    0.0000 O   0  0  0  0  0  0  0  0  0  0  0  0
    2.5981   -1.5000    0.0000 C   0  0  0  0  0  0  0  0  0  0  0  0
    1.2990   -2.2500    0.0000 C   0  0  0  0  0  0  0  0  0  0  0  0
    0.0000   -1.5000    0.0000 O   0  0  0  0  0  0  0  0  0  0  0  0
    1.2990   -3.7500    0.0000 O   0  0  0  0  0  0  0  0  0  0  0  0
   -2.5981    0.0000    0.0000 C   0  0  0  0  0  0  0  0  0  0  0  0
   -3.8971    0.7500    0.0000 C   0  0  0  0  0  0  0  0  0  0  0  0
   -5.1962    0.0000    0.0000 N   0  0  0  0  0  0  0  0  0  0  0  0
   -6.4952    0.7500    0.0000 C   0  0  0  0  0  0  0  0  0  0  0  0
   -7.7942    0.0000    0.0000 C   0  0  0  0  0  0  0  0  0  0  0  0
   -7.7942   -1.5000    0.0000 O   0  0  0  0  0  0  0  0  0  0  0  0
   -9.0933    0.7500    0.0000 O   0  0  0  0  0  0  0  0  0  0  0  0
   -5.1962   -1.5000    0.0000 C   0  0  0  0  0  0  0  0  0  0  0  0
   -3.8971   -2.2500    0.0000 C   0  0  0  0  0  0  0  0  0  0  0  0
   -2.5981   -1.5000    0.0000 O   0  0  0  0  0  0  0  0  0  0  0  0
   -3.8971   -3.7500    0.0000 O   0  0  0  0  0  0  0  0  0  0  0  0
  1  2  1  0
  2  3  1  0
  3  4  1  0
  4  5  1  0
  5  6  1  0
  6  7  2  0
  6  8  1  0
  4  9  1  0
  9 10  1  0
 10 11  2  0
 10 12  1  0
  1 13  1  0
 13 14  1  0
 14 15  1  0
 15 16  1  0
 16 17  1  0
 17 18  2  0
 17 19  1  0
 15 20  1  0
 20 21  1  0
 21 22  2  0
 21 23  1  0
M  END
>  <Name>  (39) 
Thiobis(ethylenenitrilo)tetraacetic_acid_(TEDTA)

>  <logK_Ce_z=3.0_T=25_I=0.1>  (39) 
13.47

$$$$

     RDKit          2D

 25 24  0  0  0  0  0  0  0  0999 V2000
    1.2990    0.7500    0.0000 C   0  0  0  0  0  0  0  0  0  0  0  0
    0.0000    0.0000    0.0000 C   0  0  0  0  0  0  0  0  0  0  0  0
    2.5981   -0.0000    0.0000 N   0  0  0  0  0  0  0  0  0  0  0  0
    3.8971    0.7500    0.0000 C   0  0  0  0  0  0  0  0  0  0  0  0
    5.1962   -0.0000    0.0000 C   0  0  0  0  0  0  0  0  0  0  0  0
    6.4952    0.7500    0.0000 N   0  0  0  0  0  0  0  0  0  0  0  0
    7.7942   -0.0000    0.0000 C   0  0  0  0  0  0  0  0  0  0  0  0
    9.0933    0.7500    0.0000 C   0  0  0  0  0  0  0  0  0  0  0  0
    9.0933    2.2500    0.0000 O   0  0  0  0  0  0  0  0  0  0  0  0
   10.3923   -0.0000    0.0000 O   0  0  0  0  0  0  0  0  0  0  0  0
    6.4952    2.2500    0.0000 C   0  0  0  0  0  0  0  0  0  0  0  0
    5.1962    3.0000    0.0000 C   0  0  0  0  0  0  0  0  0  0  0  0
    3.8971    2.2500    0.0000 O   0  0  0  0  0  0  0  0  0  0  0  0
    5.1962    4.5000    0.0000 O   0  0  0  0  0  0  0  0  0  0  0  0
    2.5981   -1.5000    0.0000 C   0  0  0  0  0  0  0  0  0  0  0  0
    3.8971   -2.2500    0.0000 C   0  0  0  0  0  0  0  0  0  0  0  0
    3.8971   -3.7500    0.0000 N   0  0  0  0  0  0  0  0  0  0  0  0
    5.1962   -4.5000    0.0000 C   0  0  0  0  0  0  0  0  0  0  0  0
    5.1962   -6.0000    0.0000 C   0  0  0  0  0  0  0  0  0  0  0  0
    3.8971   -6.7500    0.0000 O   0  0  0  0  0  0  0  0  0  0  0  0
    6.4952   -6.7500    0.0000 O   0  0  0  0  0  0  0  0  0  0  0  0
    2.5981   -4.5000    0.0000 C   0  0  0  0  0  0  0  0  0  0  0  0
    1.2990   -3.7500    0.0000 C   0  0  0  0  0  0  0  0  0  0  0  0
    1.2990   -2.2500    0.0000 O   0  0  0  0  0  0  0  0  0  0  0  0
    0.0000   -4.5000    0.0000 O   0  0  0  0  0  0  0  0  0  0  0  0
  1  2  1  0
  1  3  1  0
  3  4  1  0
  4  5  1  0
  5  6  1  0
  6  7  1  0
  7  8  1  0
  8  9  2  0
  8 10  1  0
  6 11  1  0
 11 12  1  0
 12 13  2  0
 12 14  1  0
  3 15  1  0
 15 16  1  0
 16 17  1  0
 17 18  1  0
 18 19  1  0
 19 20  2  0
 19 21  1  0
 17 22  1  0
 22 23  1  0
 23 24  2  0
 23 25  1  0
M  END
>  <Name>  (40) 
N-Ethyliminobis(ethylenenitrilo)tetraacetic_acid

>  <logK_Ce_z=3.0_T=25_I=0.1>  (40) 
16.73

$$$$

     RDKit          2D

 29 29  0  0  0  0  0  0  0  0999 V2000
    7.5000   -5.1962    0.0000 O   0  0  0  0  0  0  0  0  0  0  0  0
    8.2500   -3.8971    0.0000 C   0  0  0  0  0  0  0  0  0  0  0  0
    7.5000   -2.5981    0.0000 C   0  0  0  0  0  0  0  0  0  0  0  0
    6.0000   -2.5981    0.0000 N   0  0  0  0  0  0  0  0  0  0  0  0
    5.2500   -3.8971    0.0000 C   0  0  0  0  0  0  0  0  0  0  0  0
    3.7500   -3.8971    0.0000 C   0  0  0  0  0  0  0  0  0  0  0  0
    3.0000   -2.5981    0.0000 O   0  0  0  0  0  0  0  0  0  0  0  0
    3.0000   -5.1962    0.0000 O   0  0  0  0  0  0  0  0  0  0  0  0
    5.2500   -1.2990    0.0000 C   0  0  0  0  0  0  0  0  0  0  0  0
    3.7500   -1.2990    0.0000 C   0  0  0  0  0  0  0  0  0  0  0  0
    3.0000    0.0000    0.0000 N   0  0  0  0  0  0  0  0  0  0  0  0
    1.5000    0.0000    0.0000 C   0  0  0  0  0  0  0  0  0  0  0  0
    0.7500   -1.2990    0.0000 C   0  0  0  0  0  0  0  0  0  0  0  0
   -0.7500   -1.2990    0.0000 C   0  0  0  0  0  0  0  0  0  0  0  0
   -1.5000    0.0000    0.0000 C   0  0  0  0  0  0  0  0  0  0  0  0
   -0.7500    1.2990    0.0000 C   0  0  0  0  0  0  0  0  0  0  0  0
    0.7500    1.2990    0.0000 C   0  0  0  0  0  0  0  0  0  0  0  0
    3.7500    1.2990    0.0000 C   0  0  0  0  0  0  0  0  0  0  0  0
    5.2500    1.2990    0.0000 C   0  0  0  0  0  0  0  0  0  0  0  0
    6.0000    2.5981    0.0000 N   0  0  0  0  0  0  0  0  0  0  0  0
    7.5000    2.5981    0.0000 C   0  0  0  0  0  0  0  0  0  0  0  0
    8.2500    3.8971    0.0000 C   0  0  0  0  0  0  0  0  0  0  0  0
    7.5000    5.1962    0.0000 O   0  0  0  0  0  0  0  0  0  0  0  0
    9.7500    3.8971    0.0000 O   0  0  0  0  0  0  0  0  0  0  0  0
    5.2500    3.8971    0.0000 C   0  0  0  0  0  0  0  0  0  0  0  0
    3.7500    3.8971    0.0000 C   0  0  0  0  0  0  0  0  0  0  0  0
    3.0000    2.5981    0.0000 O   0  0  0  0  0  0  0  0  0  0  0  0
    3.0000    5.1962    0.0000 O   0  0  0  0  0  0  0  0  0  0  0  0
    9.7500   -3.8971    0.0000 O   0  0  0  0  0  0  0  0  0  0  0  0
  1  2  1  0
  2  3  1  0
  3  4  1  0
  4  5  1  0
  5  6  1  0
  6  7  2  0
  6  8  1  0
  4  9  1  0
  9 10  1  0
 10 11  1  0
 11 12  1  0
 12 13  2  0
 13 14  1  0
 14 15  2  0
 15 16  1  0
 16 17  2  0
 11 18  1  0
 18 19  1  0
 19 20  1  0
 20 21  1  0
 21 22  1  0
 22 23  2  0
 22 24  1  0
 20 25  1  0
 25 26  1  0
 26 27  2  0
 26 28  1  0
  2 29  2  0
 17 12  1  0
M  END
>  <Name>  (41) 
N-Phenyliminobis(ethylenenitrilo)tetraacetic_acid

>  <logK_Ce_z=3.0_T=25_I=0.1>  (41) 
13.91

$$$$

     RDKit          2D

 27 26  0  0  0  0  0  0  0  0999 V2000
    2.5981   -0.0000    0.0000 O   0  0  0  0  0  0  0  0  0  0  0  0
    1.2990    0.7500    0.0000 C   0  0  0  0  0  0  0  0  0  0  0  0
    0.0000    0.0000    0.0000 C   0  0  0  0  0  0  0  0  0  0  0  0
   -1.2990    0.7500    0.0000 N   0  0  0  0  0  0  0  0  0  0  0  0
   -2.5981    0.0000    0.0000 C   0  0  0  0  0  0  0  0  0  0  0  0
   -3.8971    0.7500    0.0000 C   0  0  0  0  0  0  0  0  0  0  0  0
   -5.1962    0.0000    0.0000 N   0  0  0  0  0  0  0  0  0  0  0  0
   -6.4952    0.7500    0.0000 C   0  0  0  0  0  0  0  0  0  0  0  0
   -7.7942    0.0000    0.0000 C   0  0  0  0  0  0  0  0  0  0  0  0
   -7.7942   -1.5000    0.0000 O   0  0  0  0  0  0  0  0  0  0  0  0
   -9.0933    0.7500    0.0000 O   0  0  0  0  0  0  0  0  0  0  0  0
   -5.1962   -1.5000    0.0000 C   0  0  0  0  0  0  0  0  0  0  0  0
   -3.8971   -2.2500    0.0000 C   0  0  0  0  0  0  0  0  0  0  0  0
   -2.5981   -1.5000    0.0000 O   0  0  0  0  0  0  0  0  0  0  0  0
   -3.8971   -3.7500    0.0000 O   0  0  0  0  0  0  0  0  0  0  0  0
   -1.2990    2.2500    0.0000 C   0  0  0  0  0  0  0  0  0  0  0  0
   -2.5981    3.0000    0.0000 C   0  0  0  0  0  0  0  0  0  0  0  0
   -2.5981    4.5000    0.0000 N   0  0  0  0  0  0  0  0  0  0  0  0
   -3.8971    5.2500    0.0000 C   0  0  0  0  0  0  0  0  0  0  0  0
   -3.8971    6.7500    0.0000 C   0  0  0  0  0  0  0  0  0  0  0  0
   -2.5981    7.5000    0.0000 O   0  0  0  0  0  0  0  0  0  0  0  0
   -5.1962    7.5000    0.0000 O   0  0  0  0  0  0  0  0  0  0  0  0
   -1.2990    5.2500    0.0000 C   0  0  0  0  0  0  0  0  0  0  0  0
    0.0000    4.5000    0.0000 C   0  0  0  0  0  0  0  0  0  0  0  0
   -0.0000    3.0000    0.0000 O   0  0  0  0  0  0  0  0  0  0  0  0
    1.2990    5.2500    0.0000 O   0  0  0  0  0  0  0  0  0  0  0  0
    1.2990    2.2500    0.0000 O   0  0  0  0  0  0  0  0  0  0  0  0
  1  2  1  0
  2  3  1  0
  3  4  1  0
  4  5  1  0
  5  6  1  0
  6  7  1  0
  7  8  1  0
  8  9  1  0
  9 10  2  0
  9 11  1  0
  7 12  1  0
 12 13  1  0
 13 14  2  0
 13 15  1  0
  4 16  1  0
 16 17  1  0
 17 18  1  0
 18 19  1  0
 19 20  1  0
 20 21  2  0
 20 22  1  0
 18 23  1  0
 23 24  1  0
 24 25  2  0
 24 26  1  0
  2 27  2  0
M  END
>  <Name>  (42) 
Diethylenetrinitrilopentaacetic_acid_(DTPA)

>  <logK_Ce_z=3.0_T=25_I=0.1>  (42) 
20.43

>  <logK_Ce_z=3.0_T=25_I=0.5>  (42) 
19.09

>  <logK_Ce_z=4.0_T=25_I=0.4>  (42) 
34.02

>  <logK_Ce_z=3.0_T=25_I=0.4>  (42) 
20.4

$$$$

     RDKit          2D

 30 29  0  0  0  0  0  0  0  0999 V2000
    5.1962    7.5000    0.0000 C   0  0  0  0  0  0  0  0  0  0  0  0
    3.8971    8.2500    0.0000 O   0  0  0  0  0  0  0  0  0  0  0  0
    6.4952    8.2500    0.0000 O   0  0  0  0  0  0  0  0  0  0  0  0
    5.1962    6.0000    0.0000 C   0  0  0  0  0  0  0  0  0  0  0  0
    3.8971    5.2500    0.0000 N   0  0  0  0  0  0  0  0  0  0  0  0
    3.8971    3.7500    0.0000 C   0  0  0  0  0  0  0  0  0  0  0  0
    2.5981    3.0000    0.0000 C   0  0  0  0  0  0  0  0  0  0  0  0
    2.5981    1.5000    0.0000 C   0  0  0  0  0  0  0  0  0  0  0  0
    1.2990    0.7500    0.0000 N   0  0  0  0  0  4  0  0  0  0  0  0
    0.0000    0.0000    0.0000 C   0  0  0  0  0  0  0  0  0  0  0  0
    2.0490   -0.5490    0.0000 C   0  0  0  0  0  0  0  0  0  0  0  0
    3.5490   -0.5490    0.0000 C   0  0  0  0  0  0  0  0  0  0  0  0
    4.2990   -1.8481    0.0000 C   0  0  0  0  0  0  0  0  0  0  0  0
    5.7990   -1.8481    0.0000 N   0  0  0  0  0  0  0  0  0  0  0  0
    6.5490   -3.1471    0.0000 C   0  0  0  0  0  0  0  0  0  0  0  0
    8.0490   -3.1471    0.0000 C   0  0  0  0  0  0  0  0  0  0  0  0
    8.7990   -1.8481    0.0000 O   0  0  0  0  0  0  0  0  0  0  0  0
    8.7990   -4.4462    0.0000 O   0  0  0  0  0  0  0  0  0  0  0  0
    6.5490   -0.5490    0.0000 C   0  0  0  0  0  0  0  0  0  0  0  0
    5.7990    0.7500    0.0000 C   0  0  0  0  0  0  0  0  0  0  0  0
    4.2990    0.7500    0.0000 O   0  0  0  0  0  0  0  0  0  0  0  0
    6.5490    2.0490    0.0000 O   0  0  0  0  0  0  0  0  0  0  0  0
    0.5490    2.0490    0.0000 C   0  0  0  0  0  0  0  0  0  0  0  0
   -0.9510    2.0490    0.0000 C   0  0  0  0  0  0  0  0  0  0  0  0
   -1.7010    0.7500    0.0000 O   0  0  0  0  0  0  0  0  0  0  0  0
   -1.7010    3.3481    0.0000 O   0  0  0  0  0  1  0  0  0  0  0  0
    2.5981    6.0000    0.0000 C   0  0  0  0  0  0  0  0  0  0  0  0
    1.2990    5.2500    0.0000 C   0  0  0  0  0  0  0  0  0  0  0  0
   -0.0000    6.0000    0.0000 O   0  0  0  0  0  0  0  0  0  0  0  0
    1.2990    3.7500    0.0000 O   0  0  0  0  0  0  0  0  0  0  0  0
  1  2  2  0
  1  3  1  0
  1  4  1  0
  4  5  1  0
  5  6  1  0
  6  7  1  0
  7  8  1  0
  8  9  1  0
  9 10  1  0
  9 11  1  0
 11 12  1  0
 12 13  1  0
 13 14  1  0
 14 15  1  0
 15 16  1  0
 16 17  2  0
 16 18  1  0
 14 19  1  0
 19 20  1  0
 20 21  2  0
 20 22  1  0
  9 23  1  0
 23 24  1  0
 24 25  2  0
 24 26  1  0
  5 27  1  0
 27 28  1  0
 28 29  2  0
 28 30  1  0
M  CHG  2   9   1  26  -1
M  END
>  <Name>  (43) 
{Bis[3-(bis(carboxymethyl)amino)propyl]methylammonio}acetate

>  <logK_Ce_z=3.0_T=25_I=0.1>  (43) 
8.08

$$$$

     RDKit          2D

 18 18  0  0  0  0  0  0  0  0999 V2000
    3.7500   -3.8971    0.0000 O   0  0  0  0  0  0  0  0  0  0  0  0
    3.0000   -2.5981    0.0000 C   0  0  0  0  0  0  0  0  0  0  0  0
    3.7500   -1.2990    0.0000 C   0  0  0  0  0  0  0  0  0  0  0  0
    3.0000    0.0000    0.0000 N   0  0  0  0  0  0  0  0  0  0  0  0
    3.7500    1.2990    0.0000 C   0  0  0  0  0  0  0  0  0  0  0  0
    5.2500    1.2990    0.0000 C   0  0  0  0  0  0  0  0  0  0  0  0
    6.0000    0.0000    0.0000 O   0  0  0  0  0  0  0  0  0  0  0  0
    6.0000    2.5981    0.0000 O   0  0  0  0  0  0  0  0  0  0  0  0
    1.5000    0.0000    0.0000 C   0  0  0  0  0  0  0  0  0  0  0  0
    0.7500   -1.2990    0.0000 C   0  0  0  0  0  0  0  0  0  0  0  0
   -0.7500   -1.2990    0.0000 C   0  0  0  0  0  0  0  0  0  0  0  0
   -1.5000    0.0000    0.0000 C   0  0  0  0  0  0  0  0  0  0  0  0
   -0.7500    1.2990    0.0000 C   0  0  0  0  0  0  0  0  0  0  0  0
    0.7500    1.2990    0.0000 C   0  0  0  0  0  0  0  0  0  0  0  0
    1.5000    2.5981    0.0000 C   0  0  0  0  0  0  0  0  0  0  0  0
    0.7500    3.8971    0.0000 O   0  0  0  0  0  0  0  0  0  0  0  0
    3.0000    2.5981    0.0000 O   0  0  0  0  0  0  0  0  0  0  0  0
    1.5000   -2.5981    0.0000 O   0  0  0  0  0  0  0  0  0  0  0  0
  1  2  1  0
  2  3  1  0
  3  4  1  0
  4  5  1  0
  5  6  1  0
  6  7  2  0
  6  8  1  0
  4  9  1  0
  9 10  2  0
 10 11  1  0
 11 12  2  0
 12 13  1  0
 13 14  2  0
 14 15  1  0
 15 16  2  0
 15 17  1  0
  2 18  2  0
 14  9  1  0
M  END
>  <Name>  (44) 
N-(2-Carboxyphenyl)iminodiacetic_acid

>  <logK_Ce_z=3.0_T=25_I=0.1>  (44) 
8.69

$$$$

     RDKit          2D

  9  9  0  0  0  0  0  0  0  0999 V2000
    1.5000    0.0000    0.0000 C   0  0  0  0  0  0  0  0  0  0  0  0
    0.7500   -1.2990    0.0000 C   0  0  0  0  0  0  0  0  0  0  0  0
   -0.7500   -1.2990    0.0000 N   0  0  0  0  0  0  0  0  0  0  0  0
   -1.5000    0.0000    0.0000 C   0  0  0  0  0  0  0  0  0  0  0  0
   -0.7500    1.2990    0.0000 C   0  0  0  0  0  0  0  0  0  0  0  0
    0.7500    1.2990    0.0000 C   0  0  0  0  0  0  0  0  0  0  0  0
   -3.0000    0.0000    0.0000 C   0  0  0  0  0  0  0  0  0  0  0  0
   -3.7500   -1.2990    0.0000 O   0  0  0  0  0  0  0  0  0  0  0  0
   -3.7500    1.2990    0.0000 O   0  0  0  0  0  0  0  0  0  0  0  0
  1  2  2  0
  2  3  1  0
  3  4  2  0
  4  5  1  0
  5  6  2  0
  4  7  1  0
  7  8  2  0
  7  9  1  0
  6  1  1  0
M  END
>  <Name>  (45) 
Pyridine-2-carboxylic_acid_(Picolinic_acid)

>  <logK_Ce_z=3.0_T=25_I=0.1>  (45) 
3.69

>  <logK_Ce_z=3.0_T=25_I=0.5>  (45) 
3.31

$$$$

     RDKit          2D

 10 10  0  0  0  0  0  0  0  0999 V2000
    3.0000    0.0000    0.0000 O   0  0  0  0  0  1  0  0  0  0  0  0
    1.5000    0.0000    0.0000 N   0  0  0  0  0  4  0  0  0  0  0  0
    0.7500   -1.2990    0.0000 C   0  0  0  0  0  0  0  0  0  0  0  0
   -0.7500   -1.2990    0.0000 C   0  0  0  0  0  0  0  0  0  0  0  0
   -1.5000    0.0000    0.0000 C   0  0  0  0  0  0  0  0  0  0  0  0
   -0.7500    1.2990    0.0000 C   0  0  0  0  0  0  0  0  0  0  0  0
    0.7500    1.2990    0.0000 C   0  0  0  0  0  0  0  0  0  0  0  0
    1.5000    2.5981    0.0000 C   0  0  0  0  0  0  0  0  0  0  0  0
    0.7500    3.8971    0.0000 O   0  0  0  0  0  0  0  0  0  0  0  0
    3.0000    2.5981    0.0000 O   0  0  0  0  0  0  0  0  0  0  0  0
  1  2  1  0
  2  3  2  0
  3  4  1  0
  4  5  2  0
  5  6  1  0
  6  7  2  0
  7  8  1  0
  8  9  2  0
  8 10  1  0
  7  2  1  0
M  CHG  2   1  -1   2   1
M  END
>  <Name>  (46) 
Pyridine-2-carboxylic_acid_N-oxide

>  <logK_Ce_z=3.0_T=25_I=2.0>  (46) 
2.71

$$$$

     RDKit          2D

 12 12  0  0  0  0  0  0  0  0999 V2000
    1.5000    0.0000    0.0000 N   0  0  0  0  0  0  0  0  0  0  0  0
    0.7500   -1.2990    0.0000 C   0  0  0  0  0  0  0  0  0  0  0  0
    1.5000   -2.5981    0.0000 C   0  0  0  0  0  0  0  0  0  0  0  0
    0.7500   -3.8971    0.0000 O   0  0  0  0  0  0  0  0  0  0  0  0
    3.0000   -2.5981    0.0000 O   0  0  0  0  0  0  0  0  0  0  0  0
   -0.7500   -1.2990    0.0000 C   0  0  0  0  0  0  0  0  0  0  0  0
   -1.5000    0.0000    0.0000 C   0  0  0  0  0  0  0  0  0  0  0  0
   -0.7500    1.2990    0.0000 C   0  0  0  0  0  0  0  0  0  0  0  0
    0.7500    1.2990    0.0000 C   0  0  0  0  0  0  0  0  0  0  0  0
    1.5000    2.5981    0.0000 C   0  0  0  0  0  0  0  0  0  0  0  0
    3.0000    2.5981    0.0000 O   0  0  0  0  0  0  0  0  0  0  0  0
    0.7500    3.8971    0.0000 O   0  0  0  0  0  0  0  0  0  0  0  0
  1  2  2  0
  2  3  1  0
  3  4  1  0
  3  5  2  0
  2  6  1  0
  6  7  2  0
  7  8  1  0
  8  9  2  0
  9 10  1  0
 10 11  1  0
 10 12  2  0
  9  1  1  0
M  END
>  <Name>  (47) 
Pyridine-2,6-dicarboxylic_acid_(Dipicolinic_acid)

>  <logK_Ce_z=3.0_T=25_I=0.5>  (47) 
8.29

$$$$

     RDKit          2D

 16 16  0  0  0  0  0  0  0  0999 V2000
    5.2500    1.2990    0.0000 O   0  0  0  0  0  0  0  0  0  0  0  0
    6.0000    0.0000    0.0000 C   0  0  0  0  0  0  0  0  0  0  0  0
    5.2500   -1.2990    0.0000 C   0  0  0  0  0  0  0  0  0  0  0  0
    3.7500   -1.2990    0.0000 N   0  0  0  0  0  0  0  0  0  0  0  0
    3.0000   -2.5981    0.0000 C   0  0  0  0  0  0  0  0  0  0  0  0
    3.7500   -3.8971    0.0000 C   0  0  0  0  0  0  0  0  0  0  0  0
    5.2500   -3.8971    0.0000 O   0  0  0  0  0  0  0  0  0  0  0  0
    3.0000   -5.1962    0.0000 O   0  0  0  0  0  0  0  0  0  0  0  0
    3.0000    0.0000    0.0000 C   0  0  0  0  0  0  0  0  0  0  0  0
    1.5000    0.0000    0.0000 C   0  0  0  0  0  0  0  0  0  0  0  0
    0.7500   -1.2990    0.0000 C   0  0  0  0  0  0  0  0  0  0  0  0
   -0.7500   -1.2990    0.0000 C   0  0  0  0  0  0  0  0  0  0  0  0
   -1.5000    0.0000    0.0000 C   0  0  0  0  0  0  0  0  0  0  0  0
   -0.7500    1.2990    0.0000 C   0  0  0  0  0  0  0  0  0  0  0  0
    0.7500    1.2990    0.0000 N   0  0  0  0  0  0  0  0  0  0  0  0
    7.5000   -0.0000    0.0000 O   0  0  0  0  0  0  0  0  0  0  0  0
  1  2  1  0
  2  3  1  0
  3  4  1  0
  4  5  1  0
  5  6  1  0
  6  7  2  0
  6  8  1  0
  4  9  1  0
  9 10  1  0
 10 11  2  0
 11 12  1  0
 12 13  2  0
 13 14  1  0
 14 15  2  0
  2 16  2  0
 15 10  1  0
M  END
>  <Name>  (48) 
N-(2-Pyridylmethyl)iminodiacetic_acid

>  <logK_Ce_z=3.0_T=25_I=0.1>  (48) 
8.3

$$$$

     RDKit          2D

 17 17  0  0  0  0  0  0  0  0999 V2000
    3.0000    0.0000    0.0000 C   0  0  0  0  0  0  0  0  0  0  0  0
    1.5000    0.0000    0.0000 C   0  0  0  0  0  0  0  0  0  0  0  0
    0.7500   -1.2990    0.0000 C   0  0  0  0  0  0  0  0  0  0  0  0
   -0.7500   -1.2990    0.0000 C   0  0  0  0  0  0  0  0  0  0  0  0
   -1.5000    0.0000    0.0000 C   0  0  0  0  0  0  0  0  0  0  0  0
   -0.7500    1.2990    0.0000 C   0  0  0  0  0  0  0  0  0  0  0  0
    0.7500    1.2990    0.0000 N   0  0  0  0  0  0  0  0  0  0  0  0
   -1.5000    2.5981    0.0000 C   0  0  0  0  0  0  0  0  0  0  0  0
   -0.7500    3.8971    0.0000 N   0  0  0  0  0  0  0  0  0  0  0  0
   -1.5000    5.1962    0.0000 C   0  0  0  0  0  0  0  0  0  0  0  0
   -3.0000    5.1962    0.0000 C   0  0  0  0  0  0  0  0  0  0  0  0
   -3.7500    3.8971    0.0000 O   0  0  0  0  0  0  0  0  0  0  0  0
   -3.7500    6.4952    0.0000 O   0  0  0  0  0  0  0  0  0  0  0  0
    0.7500    3.8971    0.0000 C   0  0  0  0  0  0  0  0  0  0  0  0
    1.5000    5.1962    0.0000 C   0  0  0  0  0  0  0  0  0  0  0  0
    0.7500    6.4952    0.0000 O   0  0  0  0  0  0  0  0  0  0  0  0
    3.0000    5.1962    0.0000 O   0  0  0  0  0  0  0  0  0  0  0  0
  1  2  1  0
  2  3  2  0
  3  4  1  0
  4  5  2  0
  5  6  1  0
  6  7  2  0
  6  8  1  0
  8  9  1  0
  9 10  1  0
 10 11  1  0
 11 12  2  0
 11 13  1  0
  9 14  1  0
 14 15  1  0
 15 16  2  0
 15 17  1  0
  7  2  1  0
M  END
>  <Name>  (49) 
N-(6-Methyl-2-pyridylmethyl)iminodiacetic_acid

>  <logK_Ce_z=3.0_T=25_I=0.1>  (49) 
6.0

$$$$

     RDKit          2D

 18 18  0  0  0  0  0  0  0  0999 V2000
    4.3191    0.0000    0.0000 N   0  0  0  0  0  0  0  0  0  0  0  0
    4.0586   -1.4772    0.0000 C   0  0  0  0  0  0  0  0  0  0  0  0
    3.3086   -2.7762    0.0000 C   0  0  0  0  0  0  0  0  0  0  0  0
    2.1595   -3.7404    0.0000 N   0  0  0  0  0  0  0  0  0  0  0  0
    0.7500   -4.2535    0.0000 C   0  0  0  0  0  0  0  0  0  0  0  0
   -0.7500   -4.2535    0.0000 C   0  0  0  0  0  0  0  0  0  0  0  0
   -2.1595   -3.7404    0.0000 N   0  0  0  0  0  0  0  0  0  0  0  0
   -3.3086   -2.7762    0.0000 C   0  0  0  0  0  0  0  0  0  0  0  0
   -4.0586   -1.4772    0.0000 C   0  0  0  0  0  0  0  0  0  0  0  0
   -4.3191    0.0000    0.0000 N   0  0  0  0  0  0  0  0  0  0  0  0
   -4.0586    1.4772    0.0000 C   0  0  0  0  0  0  0  0  0  0  0  0
   -3.3086    2.7762    0.0000 C   0  0  0  0  0  0  0  0  0  0  0  0
   -2.1595    3.7404    0.0000 N   0  0  0  0  0  0  0  0  0  0  0  0
   -0.7500    4.2535    0.0000 C   0  0  0  0  0  0  0  0  0  0  0  0
    0.7500    4.2535    0.0000 C   0  0  0  0  0  0  0  0  0  0  0  0
    2.1595    3.7404    0.0000 N   0  0  0  0  0  0  0  0  0  0  0  0
    3.3086    2.7762    0.0000 C   0  0  0  0  0  0  0  0  0  0  0  0
    4.0586    1.4772    0.0000 C   0  0  0  0  0  0  0  0  0  0  0  0
  1  2  1  0
  2  3  1  0
  3  4  1  0
  4  5  1  0
  5  6  1  0
  6  7  1  0
  7  8  1  0
  8  9  1  0
  9 10  1  0
 10 11  1  0
 11 12  1  0
 12 13  1  0
 13 14  1  0
 14 15  1  0
 15 16  1  0
 16 17  1  0
 17 18  1  0
 18  1  1  0
M  END
>  <Name>  (50) 
1,4,7,10,13,16-Hexaazacyclooctadecane_([18]aneN6)

>  <logK_Ce_z=3.0_T=25_I=0.1>  (50) 
7.51

$$$$

     RDKit          2D

  3  2  0  0  0  0  0  0  0  0999 V2000
    0.0000    0.0000    0.0000 C   0  0  0  0  0  0  0  0  0  0  0  0
    1.2990    0.7500    0.0000 O   0  0  0  0  0  0  0  0  0  0  0  0
   -1.2990    0.7500    0.0000 O   0  0  0  0  0  0  0  0  0  0  0  0
  1  2  1  0
  1  3  2  0
M  END
>  <Name>  (51) 
Methanoic_acid_(Formic_acid)

>  <logK_Ce_z=3.0_T=25_I=0.1>  (51) 
1.12

$$$$

     RDKit          2D

  4  3  0  0  0  0  0  0  0  0999 V2000
    1.2990    0.7500    0.0000 C   0  0  0  0  0  0  0  0  0  0  0  0
    2.5981   -0.0000    0.0000 O   0  0  0  0  0  0  0  0  0  0  0  0
    1.2990    2.2500    0.0000 O   0  0  0  0  0  0  0  0  0  0  0  0
    0.0000    0.0000    0.0000 C   0  0  0  0  0  0  0  0  0  0  0  0
  1  2  1  0
  1  3  2  0
  1  4  1  0
M  END
>  <Name>  (52) 
Ethanoic_acid_(Acetic_acid)

>  <logK_Ce_z=3.0_T=25_I=0.1>  (52) 
1.91

>  <logK_Ce_z=3.0_T=25_I=2.0>  (52) 
1.71

$$$$

     RDKit          2D

  5  4  0  0  0  0  0  0  0  0999 V2000
    2.5981   -1.5000    0.0000 O   0  0  0  0  0  0  0  0  0  0  0  0
    2.5981   -0.0000    0.0000 C   0  0  0  0  0  0  0  0  0  0  0  0
    1.2990    0.7500    0.0000 C   0  0  0  0  0  0  0  0  0  0  0  0
    0.0000    0.0000    0.0000 C   0  0  0  0  0  0  0  0  0  0  0  0
    3.8971    0.7500    0.0000 O   0  0  0  0  0  0  0  0  0  0  0  0
  1  2  2  0
  2  3  1  0
  3  4  1  0
  2  5  1  0
M  END
>  <Name>  (53) 
Propanoic_acid_(Propionic_acid)

>  <logK_Ce_z=3.0_T=20_I=0.1>  (53) 
2.05

>  <logK_Ce_z=3.0_T=25_I=2.0>  (53) 
1.67

$$$$

     RDKit          2D

  6  5  0  0  0  0  0  0  0  0999 V2000
    0.0000    0.0000    0.0000 C   0  0  0  0  0  0  0  0  0  0  0  0
    1.2990    0.7500    0.0000 C   0  0  0  0  0  0  0  0  0  0  0  0
    1.2990    2.2500    0.0000 C   0  0  0  0  0  0  0  0  0  0  0  0
   -0.0000    3.0000    0.0000 O   0  0  0  0  0  0  0  0  0  0  0  0
    2.5981    3.0000    0.0000 O   0  0  0  0  0  0  0  0  0  0  0  0
    2.5981   -0.0000    0.0000 C   0  0  0  0  0  0  0  0  0  0  0  0
  1  2  1  0
  2  3  1  0
  3  4  2  0
  3  5  1  0
  2  6  1  0
M  END
>  <Name>  (54) 
2-Methylpropanoic_acid_(Isobutyric_acid)

>  <logK_Ce_z=3.0_T=25_I=0.5>  (54) 
1.79

>  <logK_Ce_z=3.0_T=25_I=2.0>  (54) 
1.62

$$$$

     RDKit          2D

  5  4  0  0  0  0  0  0  0  0999 V2000
    2.5981   -0.0000    0.0000 O   0  0  0  0  0  0  0  0  0  0  0  0
    1.2990    0.7500    0.0000 C   0  0  0  0  0  0  0  0  0  0  0  0
    0.0000    0.0000    0.0000 C   0  0  0  0  0  0  0  0  0  0  0  0
   -1.2990    0.7500    0.0000 Cl  0  0  0  0  0  0  0  0  0  0  0  0
    1.2990    2.2500    0.0000 O   0  0  0  0  0  0  0  0  0  0  0  0
  1  2  1  0
  2  3  1  0
  3  4  1  0
  2  5  2  0
M  END
>  <Name>  (55) 
Chloroacetic_acid

>  <logK_Ce_z=3.0_T=25_I=0.1>  (55) 
1.18

>  <logK_Ce_z=3.0_T=25_I=2.0>  (55) 
0.98

$$$$

     RDKit          2D

  6  5  0  0  0  0  0  0  0  0999 V2000
   -1.2990    0.7500    0.0000 O   0  0  0  0  0  0  0  0  0  0  0  0
    0.0000    0.0000    0.0000 C   0  0  0  0  0  0  0  0  0  0  0  0
    1.2990    0.7500    0.0000 C   0  0  0  0  0  0  0  0  0  0  0  0
    2.5981   -0.0000    0.0000 Cl  0  0  0  0  0  0  0  0  0  0  0  0
    1.2990    2.2500    0.0000 Cl  0  0  0  0  0  0  0  0  0  0  0  0
   -0.0000   -1.5000    0.0000 O   0  0  0  0  0  0  0  0  0  0  0  0
  1  2  1  0
  2  3  1  0
  3  4  1  0
  3  5  1  0
  2  6  2  0
M  END
>  <Name>  (56) 
Dichloroacetic_acid

>  <logK_Ce_z=3.0_T=25_I=2.0>  (56) 
0.66

$$$$

     RDKit          2D

  7  6  0  0  0  0  0  0  0  0999 V2000
    2.5981    1.5000    0.0000 Cl  0  0  0  0  0  0  0  0  0  0  0  0
    1.2990    0.7500    0.0000 C   0  0  0  0  0  0  0  0  0  0  0  0
    2.0490   -0.5490    0.0000 Cl  0  0  0  0  0  0  0  0  0  0  0  0
    0.5490    2.0490    0.0000 Cl  0  0  0  0  0  0  0  0  0  0  0  0
    0.0000    0.0000    0.0000 C   0  0  0  0  0  0  0  0  0  0  0  0
   -1.2990    0.7500    0.0000 O   0  0  0  0  0  0  0  0  0  0  0  0
   -0.0000   -1.5000    0.0000 O   0  0  0  0  0  0  0  0  0  0  0  0
  1  2  1  0
  2  3  1  0
  2  4  1  0
  2  5  1  0
  5  6  1  0
  5  7  2  0
M  END
>  <Name>  (57) 
Trichloroacetic_acid

>  <logK_Ce_z=3.0_T=25_I=2.0>  (57) 
0.26

$$$$

     RDKit          2D

  5  4  0  0  0  0  0  0  0  0999 V2000
    1.2990    2.2500    0.0000 O   0  0  0  0  0  0  0  0  0  0  0  0
    1.2990    0.7500    0.0000 C   0  0  0  0  0  0  0  0  0  0  0  0
    0.0000    0.0000    0.0000 C   0  0  0  0  0  0  0  0  0  0  0  0
   -1.2990    0.7500    0.0000 I   0  0  0  0  0  0  0  0  0  0  0  0
    2.5981   -0.0000    0.0000 O   0  0  0  0  0  0  0  0  0  0  0  0
  1  2  2  0
  2  3  1  0
  3  4  1  0
  2  5  1  0
M  END
>  <Name>  (58) 
Iodoacetic_acid

>  <logK_Ce_z=3.0_T=25_I=0.1>  (58) 
1.26

$$$$

     RDKit          2D

  5  4  0  0  0  0  0  0  0  0999 V2000
    1.2990    0.7500    0.0000 C   0  0  0  0  0  0  0  0  0  0  0  0
    0.0000    0.0000    0.0000 C   0  0  0  0  0  0  0  0  0  0  0  0
   -1.2990    0.7500    0.0000 O   0  0  0  0  0  0  0  0  0  0  0  0
    2.5981   -0.0000    0.0000 O   0  0  0  0  0  0  0  0  0  0  0  0
    1.2990    2.2500    0.0000 O   0  0  0  0  0  0  0  0  0  0  0  0
  1  2  1  0
  2  3  1  0
  1  4  1  0
  1  5  2  0
M  END
>  <Name>  (59) 
Hydroxyacetic_acid_(Glycolic_acid)

>  <logK_Ce_z=3.0_T=20_I=0.1>  (59) 
2.69

>  <logK_Ce_z=3.0_T=25_I=1.0>  (59) 
2.38

>  <logK_Ce_z=3.0_T=25_I=2.0>  (59) 
2.34

$$$$

     RDKit          2D

  7  6  0  0  0  0  0  0  0  0999 V2000
    3.8971    0.7500    0.0000 C   0  0  0  0  0  0  0  0  0  0  0  0
    2.5981   -0.0000    0.0000 C   0  0  0  0  0  0  0  0  0  0  0  0
    2.5981   -1.5000    0.0000 O   0  0  0  0  0  0  0  0  0  0  0  0
    1.2990    0.7500    0.0000 C   0  0  0  0  0  0  0  0  0  0  0  0
    0.0000    0.0000    0.0000 C   0  0  0  0  0  0  0  0  0  0  0  0
    5.1962   -0.0000    0.0000 O   0  0  0  0  0  0  0  0  0  0  0  0
    3.8971    2.2500    0.0000 O   0  0  0  0  0  0  0  0  0  0  0  0
  1  2  1  0
  2  3  1  0
  2  4  1  0
  4  5  1  0
  1  6  1  0
  1  7  2  0
M  END
>  <Name>  (60) 
DL-2-Hydroxybutanoic_acid

>  <logK_Ce_z=3.0_T=25_I=0.1>  (60) 
2.44

$$$$

     RDKit          2D

  8  7  0  0  0  0  0  0  0  0999 V2000
    2.5981    4.5000    0.0000 O   0  0  0  0  0  0  0  0  0  0  0  0
    2.5981    3.0000    0.0000 C   0  0  0  0  0  0  0  0  0  0  0  0
    3.8971    2.2500    0.0000 O   0  0  0  0  0  0  0  0  0  0  0  0
    1.2990    2.2500    0.0000 C   0  0  0  0  0  0  0  0  0  0  0  0
   -0.0000    3.0000    0.0000 O   0  0  0  0  0  0  0  0  0  0  0  0
    1.2990    0.7500    0.0000 C   0  0  0  0  0  0  0  0  0  0  0  0
    0.0000    0.0000    0.0000 C   0  0  0  0  0  0  0  0  0  0  0  0
    2.5981   -0.0000    0.0000 C   0  0  0  0  0  0  0  0  0  0  0  0
  1  2  1  0
  2  3  2  0
  2  4  1  0
  4  5  1  0
  4  6  1  0
  6  7  1  0
  6  8  1  0
M  END
>  <Name>  (61) 
DL-2-Hydroxy-3-methylbutanoic_acid

>  <logK_Ce_z=3.0_T=25_I=0.1>  (61) 
2.28

>  <logK_Ce_z=3.0_T=20_I=0.1>  (61) 
2.23

$$$$

     RDKit          2D

  9  8  0  0  0  0  0  0  0  0999 V2000
    1.2990    3.3481    0.0000 C   0  0  0  0  0  0  0  0  0  0  0  0
    2.7990    3.3481    0.0000 O   0  0  0  0  0  0  0  0  0  0  0  0
    0.5490    4.6471    0.0000 O   0  0  0  0  0  0  0  0  0  0  0  0
    0.5490    2.0490    0.0000 C   0  0  0  0  0  0  0  0  0  0  0  0
   -0.9510    2.0490    0.0000 O   0  0  0  0  0  0  0  0  0  0  0  0
    1.2990    0.7500    0.0000 C   0  0  0  0  0  0  0  0  0  0  0  0
    0.0000    0.0000    0.0000 C   0  0  0  0  0  0  0  0  0  0  0  0
    2.5981    1.5000    0.0000 C   0  0  0  0  0  0  0  0  0  0  0  0
    2.0490   -0.5490    0.0000 C   0  0  0  0  0  0  0  0  0  0  0  0
  1  2  2  0
  1  3  1  0
  1  4  1  0
  4  5  1  0
  4  6  1  0
  6  7  1  0
  6  8  1  0
  6  9  1  0
M  END
>  <Name>  (62) 
DL-2-Hydroxy-3,3-dimethylbutanoic_acid

>  <logK_Ce_z=3.0_T=25_I=0.1>  (62) 
2.14

$$$$

     RDKit          2D

  7  6  0  0  0  0  0  0  0  0999 V2000
    2.0490   -0.5490    0.0000 C   0  0  0  0  0  0  0  0  0  0  0  0
    1.2990    0.7500    0.0000 C   0  0  0  0  0  0  0  0  0  0  0  0
    0.5490    2.0490    0.0000 O   0  0  0  0  0  0  0  0  0  0  0  0
    0.0000    0.0000    0.0000 C   0  0  0  0  0  0  0  0  0  0  0  0
    2.5981    1.5000    0.0000 C   0  0  0  0  0  0  0  0  0  0  0  0
    3.5490   -0.5490    0.0000 O   0  0  0  0  0  0  0  0  0  0  0  0
    1.2990   -1.8481    0.0000 O   0  0  0  0  0  0  0  0  0  0  0  0
  1  2  1  0
  2  3  1  0
  2  4  1  0
  2  5  1  0
  1  6  1  0
  1  7  2  0
M  END
>  <Name>  (63) 
2-Hydroxy-2-methylpropanoic_acid

>  <logK_Ce_z=3.0_T=25_I=0.1>  (63) 
2.6

>  <logK_Ce_z=3.0_T=25_I=0.5>  (63) 
2.37

>  <logK_Ce_z=3.0_T=25_I=1.0>  (63) 
2.36

>  <logK_Ce_z=3.0_T=25_I=2.0>  (63) 
2.43

$$$$

     RDKit          2D

  9  8  0  0  0  0  0  0  0  0999 V2000
    1.8481   -1.2990    0.0000 O   0  0  0  0  0  0  0  0  0  0  0  0
    2.5981   -0.0000    0.0000 C   0  0  0  0  0  0  0  0  0  0  0  0
    3.3481    1.2990    0.0000 C   0  0  0  0  0  0  0  0  0  0  0  0
    2.5981    2.5981    0.0000 O   0  0  0  0  0  0  0  0  0  0  0  0
    4.8481    1.2990    0.0000 O   0  0  0  0  0  0  0  0  0  0  0  0
    1.2990    0.7500    0.0000 C   0  0  0  0  0  0  0  0  0  0  0  0
    0.0000    0.0000    0.0000 C   0  0  0  0  0  0  0  0  0  0  0  0
    3.8971   -0.7500    0.0000 C   0  0  0  0  0  0  0  0  0  0  0  0
    3.8971   -2.2500    0.0000 C   0  0  0  0  0  0  0  0  0  0  0  0
  1  2  1  0
  2  3  1  0
  3  4  2  0
  3  5  1  0
  2  6  1  0
  6  7  1  0
  2  8  1  0
  8  9  1  0
M  END
>  <Name>  (64) 
2-Hydroxy-2-ethylbutanoic_acid

>  <logK_Ce_z=3.0_T=25_I=0.1>  (64) 
2.05

$$$$

     RDKit          2D

 10 10  0  0  0  0  0  0  0  0999 V2000
    2.6491   -0.9642    0.0000 O   0  0  0  0  0  0  0  0  0  0  0  0
    1.5000    0.0000    0.0000 C   0  0  0  0  0  0  0  0  0  0  0  0
    2.6491    0.9642    0.0000 C   0  0  0  0  0  0  0  0  0  0  0  0
    2.3886    2.4414    0.0000 O   0  0  0  0  0  0  0  0  0  0  0  0
    4.0586    0.4512    0.0000 O   0  0  0  0  0  0  0  0  0  0  0  0
    0.7500   -1.2990    0.0000 C   0  0  0  0  0  0  0  0  0  0  0  0
   -0.7500   -1.2990    0.0000 C   0  0  0  0  0  0  0  0  0  0  0  0
   -1.5000    0.0000    0.0000 C   0  0  0  0  0  0  0  0  0  0  0  0
   -0.7500    1.2990    0.0000 C   0  0  0  0  0  0  0  0  0  0  0  0
    0.7500    1.2990    0.0000 C   0  0  0  0  0  0  0  0  0  0  0  0
  1  2  1  0
  2  3  1  0
  3  4  2  0
  3  5  1  0
  2  6  1  0
  6  7  1  0
  7  8  1  0
  8  9  1  0
  9 10  1  0
 10  2  1  0
M  END
>  <Name>  (65) 
1-Hydroxycyclohexanecarboxylic_acid

>  <logK_Ce_z=3.0_T=25_I=0.1>  (65) 
2.2

>  <logK_Ce_z=3.0_T=25_I=1.0>  (65) 
1.99

$$$$

     RDKit          2D

 11 11  0  0  0  0  0  0  0  0999 V2000
    1.5000    0.0000    0.0000 C   0  0  0  0  0  0  0  0  0  0  0  0
    0.7500   -1.2990    0.0000 C   0  0  0  0  0  0  0  0  0  0  0  0
   -0.7500   -1.2990    0.0000 C   0  0  0  0  0  0  0  0  0  0  0  0
   -1.5000   -2.5981    0.0000 C   0  0  0  0  0  0  0  0  0  0  0  0
   -3.0000   -2.5981    0.0000 C   0  0  0  0  0  0  0  0  0  0  0  0
   -3.7500   -3.8971    0.0000 O   0  0  0  0  0  0  0  0  0  0  0  0
   -3.7500   -1.2990    0.0000 O   0  0  0  0  0  0  0  0  0  0  0  0
   -0.7500   -3.8971    0.0000 O   0  0  0  0  0  0  0  0  0  0  0  0
   -1.5000    0.0000    0.0000 C   0  0  0  0  0  0  0  0  0  0  0  0
   -0.7500    1.2990    0.0000 C   0  0  0  0  0  0  0  0  0  0  0  0
    0.7500    1.2990    0.0000 C   0  0  0  0  0  0  0  0  0  0  0  0
  1  2  2  0
  2  3  1  0
  3  4  1  0
  4  5  1  0
  5  6  1  0
  5  7  2  0
  4  8  1  0
  3  9  2  0
  9 10  1  0
 10 11  2  0
 11  1  1  0
M  END
>  <Name>  (66) 
L-Phenyl(hydroxy)acetic_acid_(Mandelic_acid)

>  <logK_Ce_z=3.0_T=25_I=0.1>  (66) 
2.37

>  <logK_Ce_z=3.0_T=25_I=2.0>  (66) 
2.17

$$$$

     RDKit          2D

  9  8  0  0  0  0  0  0  0  0999 V2000
    0.5490    2.0490    0.0000 O   0  0  0  0  0  0  0  0  0  0  0  0
    1.2990    0.7500    0.0000 C   0  0  0  0  0  0  0  0  0  0  0  0
    2.0490   -0.5490    0.0000 C   0  0  0  0  0  0  0  0  0  0  0  0
    1.2990   -1.8481    0.0000 O   0  0  0  0  0  0  0  0  0  0  0  0
    3.5490   -0.5490    0.0000 O   0  0  0  0  0  0  0  0  0  0  0  0
    0.0000    0.0000    0.0000 C   0  0  0  0  0  0  0  0  0  0  0  0
    2.5981    1.5000    0.0000 C   0  0  0  0  0  0  0  0  0  0  0  0
    2.5981    3.0000    0.0000 C   0  0  0  0  0  0  0  0  0  0  0  0
    3.8971    0.7500    0.0000 O   0  0  0  0  0  0  0  0  0  0  0  0
  1  2  1  0
  2  3  1  0
  3  4  2  0
  3  5  1  0
  2  6  1  0
  2  7  1  0
  7  8  1  0
  7  9  1  0
M  END
>  <Name>  (67) 
DL-2,3-Dihydroxy-2-methylbutanoic_acid

>  <logK_Ce_z=3.0_T=25_I=0.1>  (67) 
2.81

>  <logK_Ce_z=3.0_T=25_I=0.5>  (67) 
2.67

$$$$

     RDKit          2D

  9  8  0  0  0  0  0  0  0  0999 V2000
    0.5490    2.0490    0.0000 O   0  0  0  0  0  0  0  0  0  0  0  0
    1.2990    0.7500    0.0000 C   0  0  0  0  0  0  0  0  0  0  0  0
    2.0490   -0.5490    0.0000 C   0  0  0  0  0  0  0  0  0  0  0  0
    1.2990   -1.8481    0.0000 O   0  0  0  0  0  0  0  0  0  0  0  0
    3.5490   -0.5490    0.0000 O   0  0  0  0  0  0  0  0  0  0  0  0
    0.0000    0.0000    0.0000 C   0  0  0  0  0  0  0  0  0  0  0  0
   -1.2990    0.7500    0.0000 O   0  0  0  0  0  0  0  0  0  0  0  0
    2.5981    1.5000    0.0000 C   0  0  0  0  0  0  0  0  0  0  0  0
    2.5981    3.0000    0.0000 O   0  0  0  0  0  0  0  0  0  0  0  0
  1  2  1  0
  2  3  1  0
  3  4  2  0
  3  5  1  0
  2  6  1  0
  6  7  1  0
  2  8  1  0
  8  9  1  0
M  END
>  <Name>  (68) 
2,3-Dihydroxy-2-(hydroxymethyl)propanoic_acid

>  <logK_Ce_z=3.0_T=25_I=0.5>  (68) 
2.61

$$$$

     RDKit          2D

 13 13  0  0  0  0  0  0  0  0999 V2000
    1.5000    0.0000    0.0000 C   0  0  0  0  0  0  0  0  0  0  0  0
    0.7500   -1.2990    0.0000 C   0  0  0  0  0  0  0  0  0  0  0  0
    0.4895   -2.7762    0.0000 O   0  0  0  0  0  0  0  0  0  0  0  0
    2.1595   -1.8121    0.0000 C   0  0  0  0  0  0  0  0  0  0  0  0
    2.4200   -3.2893    0.0000 O   0  0  0  0  0  1  0  0  0  0  0  0
    3.3086   -0.8479    0.0000 O   0  0  0  0  0  0  0  0  0  0  0  0
   -0.7500   -1.2990    0.0000 C   0  0  0  0  0  0  0  0  0  0  0  0
   -1.5000    0.0000    0.0000 C   0  0  0  0  0  0  0  0  0  0  0  0
   -3.0000    0.0000    0.0000 O   0  0  0  0  0  0  0  0  0  0  0  0
   -0.7500    1.2990    0.0000 C   0  0  0  0  0  0  0  0  0  0  0  0
   -1.5000    2.5981    0.0000 O   0  0  0  0  0  0  0  0  0  0  0  0
    0.7500    1.2990    0.0000 C   0  0  0  0  0  0  0  0  0  0  0  0
    1.5000    2.5981    0.0000 O   0  0  0  0  0  0  0  0  0  0  0  0
  1  2  1  0
  2  3  1  0
  2  4  1  0
  4  5  1  0
  4  6  2  0
  2  7  1  0
  7  8  1  0
  8  9  1  1
  8 10  1  0
 10 11  1  0
 10 12  1  0
 12 13  1  6
 12  1  1  0
M  CHG  1   5  -1
M  END
>  <Name>  (69) 
(1R,3R,4R,5R)-(-)-1,3,4,5-Tetrahydroxcyclohexanecarboxylic_acid_(Quinic_acid)

>  <logK_Ce_z=3.0_T=25_I=0.1>  (69) 
2.52

$$$$

     RDKit          2D

  6  5  0  0  0  0  0  0  0  0999 V2000
   -1.2990    0.7500    0.0000 O   0  0  0  0  0  0  0  0  0  0  0  0
    0.0000    0.0000    0.0000 C   0  0  0  0  0  0  0  0  0  0  0  0
    1.2990    0.7500    0.0000 C   0  0  0  0  0  0  0  0  0  0  0  0
    2.5981   -0.0000    0.0000 C   0  0  0  0  0  0  0  0  0  0  0  0
    2.5981   -1.5000    0.0000 O   0  0  0  0  0  0  0  0  0  0  0  0
    3.8971    0.7500    0.0000 O   0  0  0  0  0  0  0  0  0  0  0  0
  1  2  1  0
  2  3  1  0
  3  4  1  0
  4  5  2  0
  4  6  1  0
M  END
>  <Name>  (70) 
3-Hydroxypropanoic_acid

>  <logK_Ce_z=3.0_T=25_I=0.1>  (70) 
2.07

>  <logK_Ce_z=3.0_T=25_I=2.0>  (70) 
1.57

$$$$

     RDKit          2D

  9  8  0  0  0  0  0  0  0  0999 V2000
    0.5490    2.0490    0.0000 C   0  0  0  0  0  0  0  0  0  0  0  0
   -0.9510    2.0490    0.0000 O   0  0  0  0  0  0  0  0  0  0  0  0
    1.2990    3.3481    0.0000 O   0  0  0  0  0  0  0  0  0  0  0  0
    1.2990    0.7500    0.0000 C   0  0  0  0  0  0  0  0  0  0  0  0
    0.0000    0.0000    0.0000 C   0  0  0  0  0  0  0  0  0  0  0  0
    2.5981    1.5000    0.0000 C   0  0  0  0  0  0  0  0  0  0  0  0
    2.5981    3.0000    0.0000 O   0  0  0  0  0  0  0  0  0  0  0  0
    2.0490   -0.5490    0.0000 C   0  0  0  0  0  0  0  0  0  0  0  0
    3.5490   -0.5490    0.0000 O   0  0  0  0  0  0  0  0  0  0  0  0
  1  2  2  0
  1  3  1  0
  1  4  1  0
  4  5  1  0
  4  6  1  0
  6  7  1  0
  4  8  1  0
  8  9  1  0
M  END
>  <Name>  (71) 
2,2-Bis(hydroxymethyl)propanoic_acid

>  <logK_Ce_z=3.0_T=25_I=0.1>  (71) 
2.31

$$$$

     RDKit          2D

  5  4  0  0  0  0  0  0  0  0999 V2000
    1.2990    2.2500    0.0000 O   0  0  0  0  0  0  0  0  0  0  0  0
    1.2990    0.7500    0.0000 C   0  0  0  0  0  0  0  0  0  0  0  0
    0.0000    0.0000    0.0000 C   0  0  0  0  0  0  0  0  0  0  0  0
   -1.2990    0.7500    0.0000 O   0  0  0  0  0  0  0  0  0  0  0  0
    2.5981   -0.0000    0.0000 O   0  0  0  0  0  0  0  0  0  0  0  0
  1  2  2  0
  2  3  1  0
  3  4  2  0
  2  5  1  0
M  END
>  <Name>  (72) 
Oxoacetic_acid_(Glyoxylic_acid)

>  <logK_Ce_z=3.0_T=20_I=0.1>  (72) 
2.39

$$$$

     RDKit          2D

  6  5  0  0  0  0  0  0  0  0999 V2000
    0.0000    0.0000    0.0000 C   0  0  0  0  0  0  0  0  0  0  0  0
    1.2990    0.7500    0.0000 C   0  0  0  0  0  0  0  0  0  0  0  0
    1.2990    2.2500    0.0000 O   0  0  0  0  0  0  0  0  0  0  0  0
    2.5981   -0.0000    0.0000 C   0  0  0  0  0  0  0  0  0  0  0  0
    2.5981   -1.5000    0.0000 O   0  0  0  0  0  0  0  0  0  0  0  0
    3.8971    0.7500    0.0000 O   0  0  0  0  0  0  0  0  0  0  0  0
  1  2  1  0
  2  3  2  0
  2  4  1  0
  4  5  2  0
  4  6  1  0
M  END
>  <Name>  (73) 
2-Oxopropanoic_acid_(Pyruvic_acid)

>  <logK_Ce_z=3.0_T=25_I=2.0>  (73) 
1.59

$$$$

     RDKit          2D

  6  5  0  0  0  0  0  0  0  0999 V2000
    3.8971    0.7500    0.0000 C   0  0  0  0  0  0  0  0  0  0  0  0
    2.5981   -0.0000    0.0000 C   0  0  0  0  0  0  0  0  0  0  0  0
    1.2990    0.7500    0.0000 O   0  0  0  0  0  0  0  0  0  0  0  0
    0.0000    0.0000    0.0000 C   0  0  0  0  0  0  0  0  0  0  0  0
    5.1962   -0.0000    0.0000 O   0  0  0  0  0  0  0  0  0  0  0  0
    3.8971    2.2500    0.0000 O   0  0  0  0  0  0  0  0  0  0  0  0
  1  2  1  0
  2  3  1  0
  3  4  1  0
  1  5  1  0
  1  6  2  0
M  END
>  <Name>  (74) 
Methoxyacetic_acid

>  <logK_Ce_z=3.0_T=20_I=0.1>  (74) 
2.06

$$$$

     RDKit          2D

  6  5  0  0  0  0  0  0  0  0999 V2000
    0.0000    0.0000    0.0000 C   0  0  0  0  0  0  0  0  0  0  0  0
    1.2990    0.7500    0.0000 C   0  0  0  0  0  0  0  0  0  0  0  0
    2.5981   -0.0000    0.0000 O   0  0  0  0  0  0  0  0  0  0  0  0
    1.2990    2.2500    0.0000 O   0  0  0  0  0  0  0  0  0  0  0  0
   -1.2990    0.7500    0.0000 O   0  0  0  0  0  0  0  0  0  0  0  0
   -0.0000   -1.5000    0.0000 O   0  0  0  0  0  0  0  0  0  0  0  0
  1  2  1  0
  2  3  1  0
  2  4  2  0
  1  5  1  0
  1  6  2  0
M  END
>  <Name>  (75) 
Ethanedioic_acid_(Oxalic_acid)

>  <logK_Ce_z=3.0_T=25_I=0.1>  (75) 
4.9

>  <logK_Ce_z=3.0_T=25_I=0.7>  (75) 
4.5

>  <logK_Ce_z=3.0_T=20_I=1.0>  (75) 
4.49

$$$$

     RDKit          2D

  7  6  0  0  0  0  0  0  0  0999 V2000
    1.2990    2.2500    0.0000 O   0  0  0  0  0  0  0  0  0  0  0  0
    1.2990    0.7500    0.0000 C   0  0  0  0  0  0  0  0  0  0  0  0
    0.0000    0.0000    0.0000 C   0  0  0  0  0  0  0  0  0  0  0  0
   -1.2990    0.7500    0.0000 C   0  0  0  0  0  0  0  0  0  0  0  0
   -1.2990    2.2500    0.0000 O   0  0  0  0  0  0  0  0  0  0  0  0
   -2.5981    0.0000    0.0000 O   0  0  0  0  0  0  0  0  0  0  0  0
    2.5981   -0.0000    0.0000 O   0  0  0  0  0  0  0  0  0  0  0  0
  1  2  2  0
  2  3  1  0
  3  4  1  0
  4  5  2  0
  4  6  1  0
  2  7  1  0
M  END
>  <Name>  (76) 
Propanedioic_acid_(Malonic_acid)

>  <logK_Ce_z=3.0_T=25_I=0.1>  (76) 
3.83

>  <logK_Ce_z=3.0_T=25_I=1.0>  (76) 
3.25

$$$$

     RDKit          2D

  8  7  0  0  0  0  0  0  0  0999 V2000
    3.8971    0.7500    0.0000 O   0  0  0  0  0  0  0  0  0  0  0  0
    2.5981   -0.0000    0.0000 C   0  0  0  0  0  0  0  0  0  0  0  0
    1.2990    0.7500    0.0000 C   0  0  0  0  0  0  0  0  0  0  0  0
    1.2990    2.2500    0.0000 C   0  0  0  0  0  0  0  0  0  0  0  0
   -0.0000    3.0000    0.0000 O   0  0  0  0  0  0  0  0  0  0  0  0
    2.5981    3.0000    0.0000 O   0  0  0  0  0  0  0  0  0  0  0  0
    0.0000    0.0000    0.0000 C   0  0  0  0  0  0  0  0  0  0  0  0
    2.5981   -1.5000    0.0000 O   0  0  0  0  0  0  0  0  0  0  0  0
  1  2  1  0
  2  3  1  0
  3  4  1  0
  4  5  2  0
  4  6  1  0
  3  7  1  0
  2  8  2  0
M  END
>  <Name>  (77) 
Ethane-1,1-dicarboxylic_acid_(Methylmalonic_acid)

>  <logK_Ce_z=3.0_T=25_I=0.1>  (77) 
3.75

$$$$

     RDKit          2D

  9  8  0  0  0  0  0  0  0  0999 V2000
    5.1962   -0.0000    0.0000 O   0  0  0  0  0  0  0  0  0  0  0  0
    3.8971    0.7500    0.0000 C   0  0  0  0  0  0  0  0  0  0  0  0
    2.5981   -0.0000    0.0000 C   0  0  0  0  0  0  0  0  0  0  0  0
    2.5981   -1.5000    0.0000 C   0  0  0  0  0  0  0  0  0  0  0  0
    1.2990   -2.2500    0.0000 O   0  0  0  0  0  0  0  0  0  0  0  0
    3.8971   -2.2500    0.0000 O   0  0  0  0  0  0  0  0  0  0  0  0
    1.2990    0.7500    0.0000 C   0  0  0  0  0  0  0  0  0  0  0  0
    0.0000    0.0000    0.0000 C   0  0  0  0  0  0  0  0  0  0  0  0
    3.8971    2.2500    0.0000 O   0  0  0  0  0  0  0  0  0  0  0  0
  1  2  1  0
  2  3  1  0
  3  4  1  0
  4  5  2  0
  4  6  1  0
  3  7  1  0
  7  8  1  0
  2  9  2  0
M  END
>  <Name>  (78) 
Propane-1,1-dicarboxylic_acid_(Ethylmalonic_acid)

>  <logK_Ce_z=3.0_T=25_I=0.1>  (78) 
3.69

$$$$

     RDKit          2D

  9  8  0  0  0  0  0  0  0  0999 V2000
    1.2990    0.7500    0.0000 C   0  0  0  0  0  0  0  0  0  0  0  0
    0.0000    0.0000    0.0000 C   0  0  0  0  0  0  0  0  0  0  0  0
    2.5981    1.5000    0.0000 C   0  0  0  0  0  0  0  0  0  0  0  0
    2.0490   -0.5490    0.0000 C   0  0  0  0  0  0  0  0  0  0  0  0
    1.2990   -1.8481    0.0000 O   0  0  0  0  0  0  0  0  0  0  0  0
    3.5490   -0.5490    0.0000 O   0  0  0  0  0  0  0  0  0  0  0  0
    0.5490    2.0490    0.0000 C   0  0  0  0  0  0  0  0  0  0  0  0
   -0.9510    2.0490    0.0000 O   0  0  0  0  0  0  0  0  0  0  0  0
    1.2990    3.3481    0.0000 O   0  0  0  0  0  0  0  0  0  0  0  0
  1  2  1  0
  1  3  1  0
  1  4  1  0
  4  5  2  0
  4  6  1  0
  1  7  1  0
  7  8  2  0
  7  9  1  0
M  END
>  <Name>  (79) 
Propane-2,2-dicarboxylic_acid_(Dimethylmalonic_acid)

>  <logK_Ce_z=3.0_T=25_I=0.1>  (79) 
3.63

$$$$

     RDKit          2D

 11 10  0  0  0  0  0  0  0  0999 V2000
    2.5981    2.5981    0.0000 O   0  0  0  0  0  0  0  0  0  0  0  0
    3.3481    1.2990    0.0000 C   0  0  0  0  0  0  0  0  0  0  0  0
    2.5981   -0.0000    0.0000 C   0  0  0  0  0  0  0  0  0  0  0  0
    1.2990    0.7500    0.0000 C   0  0  0  0  0  0  0  0  0  0  0  0
    0.0000    0.0000    0.0000 C   0  0  0  0  0  0  0  0  0  0  0  0
    3.8971   -0.7500    0.0000 C   0  0  0  0  0  0  0  0  0  0  0  0
    3.8971   -2.2500    0.0000 C   0  0  0  0  0  0  0  0  0  0  0  0
    1.8481   -1.2990    0.0000 C   0  0  0  0  0  0  0  0  0  0  0  0
    2.5981   -2.5981    0.0000 O   0  0  0  0  0  0  0  0  0  0  0  0
    0.3481   -1.2990    0.0000 O   0  0  0  0  0  0  0  0  0  0  0  0
    4.8481    1.2990    0.0000 O   0  0  0  0  0  0  0  0  0  0  0  0
  1  2  2  0
  2  3  1  0
  3  4  1  0
  4  5  1  0
  3  6  1  0
  6  7  1  0
  3  8  1  0
  8  9  1  0
  8 10  2  0
  2 11  1  0
M  END
>  <Name>  (80) 
Pentane-3,3-dicarboxylic_acid_(Diethylmalonic_acid)

>  <logK_Ce_z=3.0_T=25_I=0.1>  (80) 
3.78

$$$$

     RDKit          2D

 13 12  0  0  0  0  0  0  0  0999 V2000
    6.1471   -0.5490    0.0000 O   0  0  0  0  0  0  0  0  0  0  0  0
    4.6471   -0.5490    0.0000 C   0  0  0  0  0  0  0  0  0  0  0  0
    3.8971    0.7500    0.0000 C   0  0  0  0  0  0  0  0  0  0  0  0
    3.1471    2.0490    0.0000 C   0  0  0  0  0  0  0  0  0  0  0  0
    1.6471    2.0490    0.0000 O   0  0  0  0  0  0  0  0  0  0  0  0
    3.8971    3.3481    0.0000 O   0  0  0  0  0  0  0  0  0  0  0  0
    2.5981   -0.0000    0.0000 C   0  0  0  0  0  0  0  0  0  0  0  0
    1.2990    0.7500    0.0000 C   0  0  0  0  0  0  0  0  0  0  0  0
    0.0000    0.0000    0.0000 C   0  0  0  0  0  0  0  0  0  0  0  0
    5.1962    1.5000    0.0000 C   0  0  0  0  0  0  0  0  0  0  0  0
    5.1962    3.0000    0.0000 C   0  0  0  0  0  0  0  0  0  0  0  0
    6.4952    3.7500    0.0000 C   0  0  0  0  0  0  0  0  0  0  0  0
    3.8971   -1.8481    0.0000 O   0  0  0  0  0  0  0  0  0  0  0  0
  1  2  1  0
  2  3  1  0
  3  4  1  0
  4  5  2  0
  4  6  1  0
  3  7  1  0
  7  8  1  0
  8  9  1  0
  3 10  1  0
 10 11  1  0
 11 12  1  0
  2 13  2  0
M  END
>  <Name>  (81) 
Heptane-4,4-dicarboxylic_acid_(Dipropylmalonic_acid)

>  <logK_Ce_z=3.0_T=25_I=0.1>  (81) 
3.96

$$$$

     RDKit          2D

 10 10  0  0  0  0  0  0  0  0999 V2000
    1.7331    2.5095    0.0000 O   0  0  0  0  0  0  0  0  0  0  0  0
    2.1213    1.0607    0.0000 C   0  0  0  0  0  0  0  0  0  0  0  0
    1.0607    0.0000    0.0000 C   0  0  0  0  0  0  0  0  0  0  0  0
   -0.0000   -1.0607    0.0000 C   0  0  0  0  0  0  0  0  0  0  0  0
   -1.0607    0.0000    0.0000 C   0  0  0  0  0  0  0  0  0  0  0  0
    0.0000    1.0607    0.0000 C   0  0  0  0  0  0  0  0  0  0  0  0
    2.1213   -1.0607    0.0000 C   0  0  0  0  0  0  0  0  0  0  0  0
    1.7331   -2.5095    0.0000 O   0  0  0  0  0  0  0  0  0  0  0  0
    3.5702   -0.6724    0.0000 O   0  0  0  0  0  0  0  0  0  0  0  0
    3.5702    0.6724    0.0000 O   0  0  0  0  0  0  0  0  0  0  0  0
  1  2  2  0
  2  3  1  0
  3  4  1  0
  4  5  1  0
  5  6  1  0
  3  7  1  0
  7  8  1  0
  7  9  2  0
  2 10  1  0
  6  3  1  0
M  END
>  <Name>  (82) 
Cyclobutane-1,1-dicarboxylic_acid

>  <logK_Ce_z=3.0_T=25_I=0.1>  (82) 
3.51

$$$$

     RDKit          2D

  8  7  0  0  0  0  0  0  0  0999 V2000
   -2.2500   -1.2990    0.0000 O   0  0  0  0  0  0  0  0  0  0  0  0
   -0.7500   -1.2990    0.0000 C   0  0  0  0  0  0  0  0  0  0  0  0
    0.0000   -2.5981    0.0000 O   0  0  0  0  0  0  0  0  0  0  0  0
    0.0000    0.0000    0.0000 C   0  0  0  0  0  0  0  0  0  0  0  0
    1.5000    0.0000    0.0000 C   0  0  0  0  0  0  0  0  0  0  0  0
    2.2500    1.2990    0.0000 C   0  0  0  0  0  0  0  0  0  0  0  0
    1.5000    2.5981    0.0000 O   0  0  0  0  0  0  0  0  0  0  0  0
    3.7500    1.2990    0.0000 O   0  0  0  0  0  0  0  0  0  0  0  0
  1  2  1  0
  2  3  2  0
  2  4  1  0
  4  5  2  0
  5  6  1  0
  6  7  2  0
  6  8  1  0
M  END
>  <Name>  (83) 
trans-Butenedioic_acid_(Fumaric_acid)

>  <logK_Ce_z=3.0_T=25_I=0.1>  (83) 
2.8

$$$$

     RDKit          2D

  9  8  0  0  0  0  0  0  0  0999 V2000
    3.8971    0.7500    0.0000 O   0  0  0  0  0  0  0  0  0  0  0  0
    2.5981   -0.0000    0.0000 C   0  0  0  0  0  0  0  0  0  0  0  0
    2.5981   -1.5000    0.0000 O   0  0  0  0  0  0  0  0  0  0  0  0
    1.2990    0.7500    0.0000 C   0  0  0  0  0  0  0  0  0  0  0  0
    1.2990    2.2500    0.0000 O   0  0  0  0  0  0  0  0  0  0  0  0
    0.0000    0.0000    0.0000 C   0  0  0  0  0  0  0  0  0  0  0  0
   -1.2990    0.7500    0.0000 C   0  0  0  0  0  0  0  0  0  0  0  0
   -1.2990    2.2500    0.0000 O   0  0  0  0  0  0  0  0  0  0  0  0
   -2.5981    0.0000    0.0000 O   0  0  0  0  0  0  0  0  0  0  0  0
  1  2  1  0
  2  3  2  0
  2  4  1  0
  4  5  2  0
  4  6  1  0
  6  7  1  0
  7  8  2  0
  7  9  1  0
M  END
>  <Name>  (84) 
Oxobutanedioic_acid_(Oxaloacetic_acid)

>  <logK_Ce_z=3.0_T=25_I=0.5>  (84) 
3.21

$$$$

     RDKit          2D

  9  8  0  0  0  0  0  0  0  0999 V2000
    1.2990    0.7500    0.0000 C   0  0  0  0  0  0  0  0  0  0  0  0
    0.0000    0.0000    0.0000 C   0  0  0  0  0  0  0  0  0  0  0  0
   -1.2990    0.7500    0.0000 O   0  0  0  0  0  0  0  0  0  0  0  0
   -2.5981    0.0000    0.0000 C   0  0  0  0  0  0  0  0  0  0  0  0
   -3.8971    0.7500    0.0000 C   0  0  0  0  0  0  0  0  0  0  0  0
   -5.1962    0.0000    0.0000 O   0  0  0  0  0  0  0  0  0  0  0  0
   -3.8971    2.2500    0.0000 O   0  0  0  0  0  0  0  0  0  0  0  0
    2.5981   -0.0000    0.0000 O   0  0  0  0  0  0  0  0  0  0  0  0
    1.2990    2.2500    0.0000 O   0  0  0  0  0  0  0  0  0  0  0  0
  1  2  1  0
  2  3  1  0
  3  4  1  0
  4  5  1  0
  5  6  1  0
  5  7  2  0
  1  8  1  0
  1  9  2  0
M  END
>  <Name>  (85) 
Oxydiacetic_acid_(Diglycolic_acid)

>  <logK_Ce_z=3.0_T=25_I=1.0>  (85) 
5.16

$$$$

     RDKit          2D

 11 10  0  0  0  0  0  0  0  0999 V2000
    1.2990    2.2500    0.0000 O   0  0  0  0  0  0  0  0  0  0  0  0
    1.2990    0.7500    0.0000 C   0  0  0  0  0  0  0  0  0  0  0  0
    2.5981   -0.0000    0.0000 C   0  0  0  0  0  0  0  0  0  0  0  0
    2.5981   -1.5000    0.0000 O   0  0  0  0  0  0  0  0  0  0  0  0
    3.8971    0.7500    0.0000 O   0  0  0  0  0  0  0  0  0  0  0  0
    0.0000    0.0000    0.0000 C   0  0  0  0  0  0  0  0  0  0  0  0
    2.5981    3.0000    0.0000 C   0  0  0  0  0  0  0  0  0  0  0  0
    2.5981    4.5000    0.0000 C   0  0  0  0  0  0  0  0  0  0  0  0
    1.2990    5.2500    0.0000 O   0  0  0  0  0  0  0  0  0  0  0  0
    3.8971    5.2500    0.0000 O   0  0  0  0  0  0  0  0  0  0  0  0
    3.8971    2.2500    0.0000 C   0  0  0  0  0  0  0  0  0  0  0  0
  1  2  1  0
  2  3  1  0
  3  4  2  0
  3  5  1  0
  2  6  1  0
  1  7  1  0
  7  8  1  0
  8  9  2  0
  8 10  1  0
  7 11  1  0
M  END
>  <Name>  (86) 
DL-2,2'-Oxydipropanoic_acid_(Dilactic_acid)

>  <logK_Ce_z=3.0_T=25_I=0.1>  (86) 
5.09

$$$$

     RDKit          2D

 12 11  0  0  0  0  0  0  0  0999 V2000
   -1.2990    0.7500    0.0000 O   0  0  0  0  0  0  0  0  0  0  0  0
    0.0000    0.0000    0.0000 C   0  0  0  0  0  0  0  0  0  0  0  0
    1.2990    0.7500    0.0000 C   0  0  0  0  0  0  0  0  0  0  0  0
    1.2990    2.2500    0.0000 O   0  0  0  0  0  0  0  0  0  0  0  0
    2.5981   -0.0000    0.0000 O   0  0  0  0  0  0  0  0  0  0  0  0
   -2.5981    0.0000    0.0000 C   0  0  0  0  0  0  0  0  0  0  0  0
   -3.8971    0.7500    0.0000 C   0  0  0  0  0  0  0  0  0  0  0  0
   -5.1962    0.0000    0.0000 O   0  0  0  0  0  0  0  0  0  0  0  0
   -6.4952    0.7500    0.0000 C   0  0  0  0  0  0  0  0  0  0  0  0
   -7.7942    0.0000    0.0000 C   0  0  0  0  0  0  0  0  0  0  0  0
   -7.7942   -1.5000    0.0000 O   0  0  0  0  0  0  0  0  0  0  0  0
   -9.0933    0.7500    0.0000 O   0  0  0  0  0  0  0  0  0  0  0  0
  1  2  1  0
  2  3  1  0
  3  4  2  0
  3  5  1  0
  1  6  1  0
  6  7  1  0
  7  8  1  0
  8  9  1  0
  9 10  1  0
 10 11  2  0
 10 12  1  0
M  END
>  <Name>  (87) 
Ethylenebis(oxyacetic_acid)

>  <logK_Ce_z=3.0_T=25_I=1.0>  (87) 
4.64

$$$$

     RDKit          2D

  9  8  0  0  0  0  0  0  0  0999 V2000
    1.2990    0.7500    0.0000 C   0  0  0  0  0  0  0  0  0  0  0  0
    0.0000    0.0000    0.0000 C   0  0  0  0  0  0  0  0  0  0  0  0
   -1.2990    0.7500    0.0000 S   0  0  0  0  0  0  0  0  0  0  0  0
   -2.5981    0.0000    0.0000 C   0  0  0  0  0  0  0  0  0  0  0  0
   -3.8971    0.7500    0.0000 C   0  0  0  0  0  0  0  0  0  0  0  0
   -5.1962    0.0000    0.0000 O   0  0  0  0  0  0  0  0  0  0  0  0
   -3.8971    2.2500    0.0000 O   0  0  0  0  0  0  0  0  0  0  0  0
    2.5981   -0.0000    0.0000 O   0  0  0  0  0  0  0  0  0  0  0  0
    1.2990    2.2500    0.0000 O   0  0  0  0  0  0  0  0  0  0  0  0
  1  2  1  0
  2  3  1  0
  3  4  1  0
  4  5  1  0
  5  6  1  0
  5  7  2  0
  1  8  1  0
  1  9  2  0
M  END
>  <Name>  (88) 
Thiodiacetic_acid

>  <logK_Ce_z=3.0_T=25_I=1.0>  (88) 
2.66

$$$$

     RDKit          2D

 13 12  0  0  0  0  0  0  0  0999 V2000
    0.5490    2.0490    0.0000 O   0  0  0  0  0  0  0  0  0  0  0  0
    1.2990    0.7500    0.0000 C   0  0  0  0  0  0  0  0  0  0  0  0
    2.0490   -0.5490    0.0000 C   0  0  0  0  0  0  0  0  0  0  0  0
    3.5490   -0.5490    0.0000 O   0  0  0  0  0  0  0  0  0  0  0  0
    1.2990   -1.8481    0.0000 O   0  0  0  0  0  0  0  0  0  0  0  0
    0.0000    0.0000    0.0000 C   0  0  0  0  0  0  0  0  0  0  0  0
   -1.2990    0.7500    0.0000 C   0  0  0  0  0  0  0  0  0  0  0  0
   -2.5981    0.0000    0.0000 O   0  0  0  0  0  0  0  0  0  0  0  0
   -1.2990    2.2500    0.0000 O   0  0  0  0  0  0  0  0  0  0  0  0
    2.5981    1.5000    0.0000 C   0  0  0  0  0  0  0  0  0  0  0  0
    2.5981    3.0000    0.0000 C   0  0  0  0  0  0  0  0  0  0  0  0
    3.8971    3.7500    0.0000 O   0  0  0  0  0  0  0  0  0  0  0  0
    1.2990    3.7500    0.0000 O   0  0  0  0  0  0  0  0  0  0  0  0
  1  2  1  0
  2  3  1  0
  3  4  1  0
  3  5  2  0
  2  6  1  0
  6  7  1  0
  7  8  1  0
  7  9  2  0
  2 10  1  0
 10 11  1  0
 11 12  1  0
 11 13  2  0
M  END
>  <Name>  (89) 
2-Hydroxypropane-1,2,3-tricarboxylic_acid_(Citric_acid)

>  <logK_Ce_z=3.0_T=25_I=0.1>  (89) 
7.41

$$$$

     RDKit          2D

 20 20  0  0  0  0  0  0  0  0999 V2000
    7.5000    2.5981    0.0000 S   0  0  0  0  0  0  0  0  0  0  0  0
    6.0000    2.5981    0.0000 C   0  0  0  0  0  0  0  0  0  0  0  0
    5.2500    1.2990    0.0000 C   0  0  0  0  0  0  0  0  0  0  0  0
    3.7500    1.2990    0.0000 C   0  0  0  0  0  0  0  0  0  0  0  0
    3.0000    0.0000    0.0000 N   0  0  0  0  0  0  0  0  0  0  0  0
    1.5000    0.0000    0.0000 C   0  0  0  0  0  0  0  0  0  0  0  0
    0.7500   -1.2990    0.0000 C   0  0  0  0  0  0  0  0  0  0  0  0
   -0.7500   -1.2990    0.0000 C   0  0  0  0  0  0  0  0  0  0  0  0
   -1.5000    0.0000    0.0000 C   0  0  0  0  0  0  0  0  0  0  0  0
   -0.7500    1.2990    0.0000 C   0  0  0  0  0  0  0  0  0  0  0  0
    0.7500    1.2990    0.0000 C   0  0  0  0  0  0  0  0  0  0  0  0
   -1.5000    2.5981    0.0000 O   0  0  0  0  0  0  0  0  0  0  0  0
   -3.0000    0.0000    0.0000 N   0  0  0  0  0  0  0  0  0  0  0  0
   -3.7500    1.2990    0.0000 O   0  0  0  0  0  0  0  0  0  0  0  0
    3.7500   -1.2990    0.0000 C   0  0  0  0  0  0  0  0  0  0  0  0
    5.2500   -1.2990    0.0000 C   0  0  0  0  0  0  0  0  0  0  0  0
    6.0000   -2.5981    0.0000 C   0  0  0  0  0  0  0  0  0  0  0  0
    7.5000    4.0981    0.0000 O   0  0  0  0  0  0  0  0  0  0  0  0
    7.5000    1.0981    0.0000 O   0  0  0  0  0  0  0  0  0  0  0  0
    9.0000    2.5981    0.0000 O   0  0  0  0  0  0  0  0  0  0  0  0
  1  2  1  0
  2  3  1  0
  3  4  1  0
  4  5  1  0
  5  6  1  0
  6  7  2  0
  7  8  1  0
  8  9  2  0
  9 10  1  0
 10 11  2  0
 10 12  1  0
  9 13  1  0
 13 14  2  0
  5 15  1  0
 15 16  1  0
 16 17  1  0
  1 18  2  0
  1 19  2  0
  1 20  1  0
 11  6  1  0
M  END
>  <Name>  (90) 
2-Nitroso-5-(N-propyl-3-sulfopropylamino)phenol

>  <logK_Ce_z=3.0_T=25_I=0.1>  (90) 
5.43

$$$$

     RDKit          2D

 10 10  0  0  0  0  0  0  0  0999 V2000
    3.0000    0.0000    0.0000 O   0  0  0  0  0  0  0  0  0  0  0  0
    1.5000    0.0000    0.0000 C   0  0  0  0  0  0  0  0  0  0  0  0
    0.7500   -1.2990    0.0000 C   0  0  0  0  0  0  0  0  0  0  0  0
   -0.7500   -1.2990    0.0000 C   0  0  0  0  0  0  0  0  0  0  0  0
   -1.5000    0.0000    0.0000 C   0  0  0  0  0  0  0  0  0  0  0  0
   -0.7500    1.2990    0.0000 C   0  0  0  0  0  0  0  0  0  0  0  0
    0.7500    1.2990    0.0000 C   0  0  0  0  0  0  0  0  0  0  0  0
    1.5000    2.5981    0.0000 N   0  0  0  0  0  0  0  0  0  0  0  0
    3.0000    2.5981    0.0000 O   0  0  0  0  0  0  0  0  0  0  0  0
   -1.5000   -2.5981    0.0000 O   0  0  0  0  0  0  0  0  0  0  0  0
  1  2  1  0
  2  3  2  0
  3  4  1  0
  4  5  2  0
  5  6  1  0
  6  7  2  0
  7  8  1  0
  8  9  2  0
  4 10  1  0
  7  2  1  0
M  END
>  <Name>  (91) 
1,3-Dihydroxy-4-nitrosobenzene_(Nitrosoresorcinol)

>  <logK_Ce_z=3.0_T=25_I=0.1>  (91) 
5.82

$$$$

     RDKit          2D

 17 18  0  0  0  0  0  0  0  0999 V2000
   -3.0000   -2.5981    0.0000 O   0  0  0  0  0  0  0  0  0  0  0  0
   -1.5000   -2.5981    0.0000 C   0  0  0  0  0  0  0  0  0  0  0  0
   -0.7500   -3.8971    0.0000 C   0  0  0  0  0  0  0  0  0  0  0  0
    0.7500   -3.8971    0.0000 C   0  0  0  0  0  0  0  0  0  0  0  0
    1.5000   -2.5981    0.0000 C   0  0  0  0  0  0  0  0  0  0  0  0
    0.7500   -1.2990    0.0000 C   0  0  0  0  0  0  0  0  0  0  0  0
    1.5000    0.0000    0.0000 C   0  0  0  0  0  0  0  0  0  0  0  0
    0.7500    1.2990    0.0000 C   0  0  0  0  0  0  0  0  0  0  0  0
   -0.7500    1.2990    0.0000 C   0  0  0  0  0  0  0  0  0  0  0  0
   -1.5000    0.0000    0.0000 C   0  0  0  0  0  0  0  0  0  0  0  0
   -0.7500   -1.2990    0.0000 C   0  0  0  0  0  0  0  0  0  0  0  0
    3.0000   -2.5981    0.0000 S   0  0  0  0  0  6  0  0  0  0  0  0
    4.5000   -2.5981    0.0000 O   0  0  0  0  0  0  0  0  0  0  0  0
    3.0000   -4.0981    0.0000 O   0  0  0  0  0  0  0  0  0  0  0  0
    3.0000   -1.0981    0.0000 O   0  0  0  0  0  0  0  0  0  0  0  0
   -1.5000   -5.1962    0.0000 N   0  0  0  0  0  0  0  0  0  0  0  0
   -3.0000   -5.1962    0.0000 O   0  0  0  0  0  0  0  0  0  0  0  0
  1  2  1  0
  2  3  2  0
  3  4  1  0
  4  5  2  0
  5  6  1  0
  6  7  2  0
  7  8  1  0
  8  9  2  0
  9 10  1  0
 10 11  2  0
  5 12  1  0
 12 13  1  0
 12 14  2  0
 12 15  2  0
  3 16  1  0
 16 17  2  0
 11  2  1  0
 11  6  1  0
M  END
>  <Name>  (92) 
2-Nitroso-1-naphthol-4-sulfonic_acid_(Nitroso-NW_acid)

>  <logK_Ce_z=3.0_T=25_I=0.1>  (92) 
2.8

>  <logK_Ce_z=3.0_T=25_I=0.0>  (92) 
3.91

$$$$

     RDKit          2D

 13 14  0  0  0  0  0  0  0  0999 V2000
    0.7500   -1.2990    0.0000 C   0  0  0  0  0  0  0  0  0  0  0  0
    1.5000    0.0000    0.0000 C   0  0  0  0  0  0  0  0  0  0  0  0
    0.7500    1.2990    0.0000 C   0  0  0  0  0  0  0  0  0  0  0  0
   -0.7500    1.2990    0.0000 C   0  0  0  0  0  0  0  0  0  0  0  0
   -1.5000    0.0000    0.0000 C   0  0  0  0  0  0  0  0  0  0  0  0
   -0.7500   -1.2990    0.0000 C   0  0  0  0  0  0  0  0  0  0  0  0
   -1.5000   -2.5981    0.0000 C   0  0  0  0  0  0  0  0  0  0  0  0
   -0.7500   -3.8971    0.0000 C   0  0  0  0  0  0  0  0  0  0  0  0
    0.7500   -3.8971    0.0000 C   0  0  0  0  0  0  0  0  0  0  0  0
    1.5000   -5.1962    0.0000 O   0  0  0  0  0  0  0  0  0  0  0  0
    1.5000   -2.5981    0.0000 C   0  0  0  0  0  0  0  0  0  0  0  0
    3.0000   -2.5981    0.0000 N   0  0  0  0  0  0  0  0  0  0  0  0
    3.7500   -3.8971    0.0000 O   0  0  0  0  0  0  0  0  0  0  0  0
  1  2  2  0
  2  3  1  0
  3  4  2  0
  4  5  1  0
  5  6  2  0
  6  7  1  0
  7  8  2  0
  8  9  1  0
  9 10  1  0
  9 11  2  0
 11 12  1  0
 12 13  2  0
  6  1  1  0
 11  1  1  0
M  END
>  <Name>  (93) 
1-Nitroso-2-naphthol

>  <logK_Ce_z=3.0_T=25_I=0.1>  (93) 
4.16

$$$$

     RDKit          2D

 44 47  0  0  0  0  0  0  0  0999 V2000
    1.5000   -7.7942    0.0000 C   0  0  0  0  0  0  0  0  0  0  0  0
    0.7500   -6.4952    0.0000 C   0  0  0  0  0  0  0  0  0  0  0  0
    1.5000   -5.1962    0.0000 C   0  0  0  0  0  0  0  0  0  0  0  0
    0.7500   -3.8971    0.0000 N   0  0  0  0  0  0  0  0  0  0  0  0
    1.5000   -2.5981    0.0000 N   0  0  0  0  0  0  0  0  0  0  0  0
    0.7500   -1.2990    0.0000 C   0  0  0  0  0  0  0  0  0  0  0  0
    1.5000    0.0000    0.0000 C   0  0  0  0  0  0  0  0  0  0  0  0
    3.0000    0.0000    0.0000 S   0  0  0  0  0  0  0  0  0  0  0  0
    4.5000    0.0000    0.0000 O   0  0  0  0  0  0  0  0  0  0  0  0
    3.0000    1.5000    0.0000 O   0  0  0  0  0  0  0  0  0  0  0  0
    3.0000   -1.5000    0.0000 O   0  0  0  0  0  0  0  0  0  0  0  0
    0.7500    1.2990    0.0000 C   0  0  0  0  0  0  0  0  0  0  0  0
   -0.7500    1.2990    0.0000 C   0  0  0  0  0  0  0  0  0  0  0  0
   -1.5000    2.5981    0.0000 C   0  0  0  0  0  0  0  0  0  0  0  0
   -3.0000    2.5981    0.0000 C   0  0  0  0  0  0  0  0  0  0  0  0
   -3.7500    3.8971    0.0000 S   0  0  0  0  0  0  0  0  0  0  0  0
   -4.5000    5.1962    0.0000 O   0  0  0  0  0  0  0  0  0  0  0  0
   -2.4510    4.6471    0.0000 O   0  0  0  0  0  0  0  0  0  0  0  0
   -5.0490    3.1471    0.0000 O   0  0  0  0  0  0  0  0  0  0  0  0
   -3.7500    1.2990    0.0000 C   0  0  0  0  0  0  0  0  0  0  0  0
   -5.2500    1.2990    0.0000 N   0  0  0  0  0  0  0  0  0  0  0  0
   -6.0000    2.5981    0.0000 N   0  0  0  0  0  0  0  0  0  0  0  0
   -7.5000    2.5981    0.0000 C   0  0  0  0  0  0  0  0  0  0  0  0
   -8.2500    3.8971    0.0000 C   0  0  0  0  0  0  0  0  0  0  0  0
   -7.5000    5.1962    0.0000 As  0  0  0  0  0  5  0  0  0  0  0  0
   -6.7500    6.4952    0.0000 O   0  0  0  0  0  0  0  0  0  0  0  0
   -8.7990    5.9462    0.0000 O   0  0  0  0  0  0  0  0  0  0  0  0
   -6.2010    4.4462    0.0000 O   0  0  0  0  0  0  0  0  0  0  0  0
   -9.7500    3.8971    0.0000 C   0  0  0  0  0  0  0  0  0  0  0  0
  -10.5000    2.5981    0.0000 C   0  0  0  0  0  0  0  0  0  0  0  0
   -9.7500    1.2990    0.0000 C   0  0  0  0  0  0  0  0  0  0  0  0
   -8.2500    1.2990    0.0000 C   0  0  0  0  0  0  0  0  0  0  0  0
   -3.0000    0.0000    0.0000 C   0  0  0  0  0  0  0  0  0  0  0  0
   -3.7500   -1.2990    0.0000 O   0  0  0  0  0  0  0  0  0  0  0  0
   -1.5000    0.0000    0.0000 C   0  0  0  0  0  0  0  0  0  0  0  0
   -0.7500   -1.2990    0.0000 C   0  0  0  0  0  0  0  0  0  0  0  0
   -1.5000   -2.5981    0.0000 O   0  0  0  0  0  0  0  0  0  0  0  0
    3.0000   -5.1962    0.0000 C   0  0  0  0  0  0  0  0  0  0  0  0
    3.7500   -3.8971    0.0000 As  0  0  0  0  0  5  0  0  0  0  0  0
    4.5000   -2.5981    0.0000 O   0  0  0  0  0  0  0  0  0  0  0  0
    5.0490   -4.6471    0.0000 O   0  0  0  0  0  0  0  0  0  0  0  0
    2.4510   -3.1471    0.0000 O   0  0  0  0  0  0  0  0  0  0  0  0
    3.7500   -6.4952    0.0000 C   0  0  0  0  0  0  0  0  0  0  0  0
    3.0000   -7.7942    0.0000 C   0  0  0  0  0  0  0  0  0  0  0  0
  1  2  2  0
  2  3  1  0
  3  4  1  0
  4  5  2  3
  5  6  1  0
  6  7  2  0
  7  8  1  0
  8  9  1  0
  8 10  2  0
  8 11  2  0
  7 12  1  0
 12 13  2  0
 13 14  1  0
 14 15  2  0
 15 16  1  0
 16 17  1  0
 16 18  2  0
 16 19  2  0
 15 20  1  0
 20 21  1  0
 21 22  2  3
 22 23  1  0
 23 24  2  0
 24 25  1  0
 25 26  1  0
 25 27  1  0
 25 28  2  0
 24 29  1  0
 29 30  2  0
 30 31  1  0
 31 32  2  0
 20 33  2  0
 33 34  1  0
 33 35  1  0
 35 36  2  0
 36 37  1  0
  3 38  2  0
 38 39  1  0
 39 40  1  0
 39 41  1  0
 39 42  2  0
 38 43  1  0
 43 44  2  0
 44  1  1  0
 36  6  1  0
 35 13  1  0
 32 23  1  0
M  END
>  <Name>  (94) 
2,7-Bis(2-arsonophenylazo)-1,8-dihydroxynaphthalene-3,6-disulfonic_acid_(Arsenazo_III)

>  <logK_Ce_z=3.0_T=25_I=0.1>  (94) 
6.8

$$$$

     RDKit          2D

  7  6  0  0  0  0  0  0  0  0999 V2000
    0.0000    0.0000    0.0000 C   0  0  0  0  0  0  0  0  0  0  0  0
    1.2990    0.7500    0.0000 C   0  0  0  0  0  0  0  0  0  0  0  0
    2.5981   -0.0000    0.0000 C   0  0  0  0  0  0  0  0  0  0  0  0
    3.8971    0.7500    0.0000 C   0  0  0  0  0  0  0  0  0  0  0  0
    5.1962   -0.0000    0.0000 C   0  0  0  0  0  0  0  0  0  0  0  0
    3.8971    2.2500    0.0000 O   0  0  0  0  0  0  0  0  0  0  0  0
    1.2990    2.2500    0.0000 O   0  0  0  0  0  0  0  0  0  0  0  0
  1  2  1  0
  2  3  1  0
  3  4  1  0
  4  5  1  0
  4  6  2  0
  2  7  2  0
M  END
>  <Name>  (95) 
Pentane-2,4-dione_(Acetylacetone)

>  <logK_Ce_z=3.0_T=25_I=0.1>  (95) 
5.15

>  <logK_Ce_z=3.0_T=30_I=0.0>  (95) 
5.3

$$$$

     RDKit          2D

  8  8  0  0  0  0  0  0  0  0999 V2000
    1.0607    0.0000    0.0000 C   0  0  0  0  0  0  0  0  0  0  0  0
    2.5607    0.0000    0.0000 O   0  0  0  0  0  0  0  0  0  0  0  0
   -0.0000   -1.0607    0.0000 C   0  0  0  0  0  0  0  0  0  0  0  0
   -0.0000   -2.5607    0.0000 O   0  0  0  0  0  0  0  0  0  0  0  0
   -1.0607    0.0000    0.0000 C   0  0  0  0  0  0  0  0  0  0  0  0
   -2.5607    0.0000    0.0000 O   0  0  0  0  0  0  0  0  0  0  0  0
    0.0000    1.0607    0.0000 C   0  0  0  0  0  0  0  0  0  0  0  0
    0.0000    2.5607    0.0000 O   0  0  0  0  0  0  0  0  0  0  0  0
  1  2  1  0
  1  3  1  0
  3  4  2  0
  3  5  1  0
  5  6  2  0
  5  7  1  0
  7  8  1  0
  7  1  2  0
M  END
>  <Name>  (96) 
Dihydroxycyclobutenedione_(Squaric_acid)

>  <logK_Ce_z=3.0_T=25_I=0.1>  (96) 
2.72

$$$$

     RDKit          2D

  9  9  0  0  0  0  0  0  0  0999 V2000
    1.7286    0.0000    0.0000 C   0  0  0  0  0  0  0  0  0  0  0  0
    3.2286   -0.0000    0.0000 O   0  0  0  0  0  0  0  0  0  0  0  0
    1.0777    1.3515    0.0000 C   0  0  0  0  0  0  0  0  0  0  0  0
   -0.3846    1.6852    0.0000 C   0  0  0  0  0  0  0  0  0  0  0  0
   -1.5574    0.7500    0.0000 C   0  0  0  0  0  0  0  0  0  0  0  0
   -1.5574   -0.7500    0.0000 C   0  0  0  0  0  0  0  0  0  0  0  0
   -0.3846   -1.6852    0.0000 C   0  0  0  0  0  0  0  0  0  0  0  0
    1.0777   -1.3515    0.0000 C   0  0  0  0  0  0  0  0  0  0  0  0
    2.0130   -2.5242    0.0000 O   0  0  0  0  0  0  0  0  0  0  0  0
  1  2  1  0
  1  3  2  0
  3  4  1  0
  4  5  2  0
  5  6  1  0
  6  7  2  0
  7  8  1  0
  8  9  2  0
  8  1  1  0
M  END
>  <Name>  (97) 
1-Hydroxycyclohepta-3,5,7-trien-2-one_(Tropolone)

>  <logK_Ce_z=3.0_T=25_I=0.1>  (97) 
6.56

$$$$

     RDKit          2D

 10 10  0  0  0  0  0  0  0  0999 V2000
    1.5000    0.0000    0.0000 C   0  0  0  0  0  0  0  0  0  0  0  0
    3.0000    0.0000    0.0000 O   0  0  0  0  0  0  0  0  0  0  0  0
    0.7500   -1.2990    0.0000 C   0  0  0  0  0  0  0  0  0  0  0  0
   -0.7500   -1.2990    0.0000 O   0  0  0  0  0  0  0  0  0  0  0  0
   -1.5000    0.0000    0.0000 C   0  0  0  0  0  0  0  0  0  0  0  0
   -3.0000    0.0000    0.0000 C   0  0  0  0  0  0  0  0  0  0  0  0
   -3.7500    1.2990    0.0000 O   0  0  0  0  0  0  0  0  0  0  0  0
   -0.7500    1.2990    0.0000 C   0  0  0  0  0  0  0  0  0  0  0  0
    0.7500    1.2990    0.0000 C   0  0  0  0  0  0  0  0  0  0  0  0
    1.5000    2.5981    0.0000 O   0  0  0  0  0  0  0  0  0  0  0  0
  1  2  1  0
  1  3  2  0
  3  4  1  0
  4  5  1  0
  5  6  1  0
  6  7  1  0
  5  8  2  0
  8  9  1  0
  9 10  2  0
  9  1  1  0
M  END
>  <Name>  (98) 
5-Hydroxy-2-hydroxymethyl-4-pyrone_(Kojic_acid)

>  <logK_Ce_z=3.0_T=25_I=0.1>  (98) 
5.57

>  <logK_Ce_z=3.0_T=25_I=2.0>  (98) 
5.28

$$$$

     RDKit          2D

 11 11  0  0  0  0  0  0  0  0999 V2000
    1.5000    0.0000    0.0000 O   0  0  0  0  0  0  0  0  0  0  0  0
    0.7500   -1.2990    0.0000 C   0  0  0  0  0  0  0  0  0  0  0  0
    1.5000   -2.5981    0.0000 C   0  0  0  0  0  0  0  0  0  0  0  0
   -0.7500   -1.2990    0.0000 C   0  0  0  0  0  0  0  0  0  0  0  0
   -1.5000    0.0000    0.0000 C   0  0  0  0  0  0  0  0  0  0  0  0
   -0.7500    1.2990    0.0000 C   0  0  0  0  0  0  0  0  0  0  0  0
    0.7500    1.2990    0.0000 C   0  0  0  0  0  0  0  0  0  0  0  0
    1.5000    2.5981    0.0000 C   0  0  0  0  0  0  0  0  0  0  0  0
    3.0000    2.5981    0.0000 O   0  0  0  0  0  0  0  0  0  0  0  0
   -3.0000    0.0000    0.0000 O   0  0  0  0  0  0  0  0  0  0  0  0
   -1.5000   -2.5981    0.0000 O   0  0  0  0  0  0  0  0  0  0  0  0
  1  2  1  0
  2  3  1  0
  2  4  2  0
  4  5  1  0
  5  6  1  0
  6  7  2  0
  7  8  1  0
  8  9  1  0
  5 10  2  0
  4 11  1  0
  7  1  1  0
M  END
>  <Name>  (99) 
5-Hydroxy-2-hydroxymethyl-6-methyl-4-pyrone_(6-Methylkojic_acid)

>  <logK_Ce_z=3.0_T=25_I=0.1>  (99) 
5.78

$$$$

     RDKit          2D

 11 11  0  0  0  0  0  0  0  0999 V2000
    3.0000    0.0000    0.0000 Br  0  0  0  0  0  0  0  0  0  0  0  0
    1.5000    0.0000    0.0000 C   0  0  0  0  0  0  0  0  0  0  0  0
    0.7500   -1.2990    0.0000 C   0  0  0  0  0  0  0  0  0  0  0  0
   -0.7500   -1.2990    0.0000 C   0  0  0  0  0  0  0  0  0  0  0  0
   -1.5000    0.0000    0.0000 C   0  0  0  0  0  0  0  0  0  0  0  0
   -0.7500    1.2990    0.0000 C   0  0  0  0  0  0  0  0  0  0  0  0
   -1.5000    2.5981    0.0000 C   0  0  0  0  0  0  0  0  0  0  0  0
   -0.7500    3.8971    0.0000 O   0  0  0  0  0  0  0  0  0  0  0  0
    0.7500    1.2990    0.0000 O   0  0  0  0  0  0  0  0  0  0  0  0
   -1.5000   -2.5981    0.0000 O   0  0  0  0  0  0  0  0  0  0  0  0
    1.5000   -2.5981    0.0000 O   0  0  0  0  0  0  0  0  0  0  0  0
  1  2  1  0
  2  3  2  0
  3  4  1  0
  4  5  1  0
  5  6  2  0
  6  7  1  0
  7  8  1  0
  6  9  1  0
  4 10  2  0
  3 11  1  0
  9  2  1  0
M  END
>  <Name>  (100) 
6-Bromo-5-hydroxy-2-hydroxymethyl-4-pyrone_(6-Bromokojic_acid)

>  <logK_Ce_z=3.0_T=25_I=0.1>  (100) 
4.9

$$$$

     RDKit          2D

 11 11  0  0  0  0  0  0  0  0999 V2000
    3.0000    0.0000    0.0000 I   0  0  0  0  0  0  0  0  0  0  0  0
    1.5000    0.0000    0.0000 C   0  0  0  0  0  0  0  0  0  0  0  0
    0.7500   -1.2990    0.0000 C   0  0  0  0  0  0  0  0  0  0  0  0
   -0.7500   -1.2990    0.0000 C   0  0  0  0  0  0  0  0  0  0  0  0
   -1.5000    0.0000    0.0000 C   0  0  0  0  0  0  0  0  0  0  0  0
   -0.7500    1.2990    0.0000 C   0  0  0  0  0  0  0  0  0  0  0  0
   -1.5000    2.5981    0.0000 C   0  0  0  0  0  0  0  0  0  0  0  0
   -0.7500    3.8971    0.0000 O   0  0  0  0  0  0  0  0  0  0  0  0
    0.7500    1.2990    0.0000 O   0  0  0  0  0  0  0  0  0  0  0  0
   -1.5000   -2.5981    0.0000 O   0  0  0  0  0  0  0  0  0  0  0  0
    1.5000   -2.5981    0.0000 O   0  0  0  0  0  0  0  0  0  0  0  0
  1  2  1  0
  2  3  2  0
  3  4  1  0
  4  5  1  0
  5  6  2  0
  6  7  1  0
  7  8  1  0
  6  9  1  0
  4 10  2  0
  3 11  1  0
  9  2  1  0
M  END
>  <Name>  (101) 
5-Hydroxy-2-hydroxymethyl-6-iodo-4-pyrone_(6-Iodokojic_acid)

>  <logK_Ce_z=3.0_T=25_I=0.1>  (101) 
4.92

$$$$

     RDKit          2D

 12 12  0  0  0  0  0  0  0  0999 V2000
    1.5000    0.0000    0.0000 O   0  0  0  0  0  0  0  0  0  0  0  0
    0.7500   -1.2990    0.0000 C   0  0  0  0  0  0  0  0  0  0  0  0
    1.5000   -2.5981    0.0000 C   0  0  0  0  0  0  0  0  0  0  0  0
    0.7500   -3.8971    0.0000 O   0  0  0  0  0  0  0  0  0  0  0  0
   -0.7500   -1.2990    0.0000 C   0  0  0  0  0  0  0  0  0  0  0  0
   -1.5000    0.0000    0.0000 C   0  0  0  0  0  0  0  0  0  0  0  0
   -0.7500    1.2990    0.0000 C   0  0  0  0  0  0  0  0  0  0  0  0
    0.7500    1.2990    0.0000 C   0  0  0  0  0  0  0  0  0  0  0  0
    1.5000    2.5981    0.0000 C   0  0  0  0  0  0  0  0  0  0  0  0
    3.0000    2.5981    0.0000 O   0  0  0  0  0  0  0  0  0  0  0  0
   -1.5000    2.5981    0.0000 O   0  0  0  0  0  0  0  0  0  0  0  0
   -3.0000    0.0000    0.0000 O   0  0  0  0  0  0  0  0  0  0  0  0
  1  2  1  0
  2  3  1  0
  3  4  1  0
  2  5  2  0
  5  6  1  0
  6  7  1  0
  7  8  2  0
  8  9  1  0
  9 10  1  0
  7 11  1  0
  6 12  2  0
  8  1  1  0
M  END
>  <Name>  (102) 
3-Hydroxy-2,6-bis(hydroxymethyl)-4-pyrone_(6-Hydroxymethylkojic_acid)

>  <logK_Ce_z=3.0_T=25_I=0.1>  (102) 
5.53

$$$$

     RDKit          2D

  5  4  0  0  0  0  0  0  0  0999 V2000
    0.0000    0.0000    0.0000 C   0  0  0  0  0  0  0  0  0  0  0  0
    1.2990    0.7500    0.0000 C   0  0  0  0  0  0  0  0  0  0  0  0
    2.5981   -0.0000    0.0000 N   0  0  0  0  0  0  0  0  0  0  0  0
    3.8971    0.7500    0.0000 O   0  0  0  0  0  0  0  0  0  0  0  0
    1.2990    2.2500    0.0000 O   0  0  0  0  0  0  0  0  0  0  0  0
  1  2  1  0
  2  3  1  0
  3  4  1  0
  2  5  2  0
M  END
>  <Name>  (103) 
Acetohydroxamic_acid

>  <logK_Ce_z=3.0_T=20_I=0.1>  (103) 
5.45

$$$$

     RDKit          2D

  1  0  0  0  0  0  0  0  0  0999 V2000
    0.0000    0.0000    0.0000 O   0  0  0  0  0  1  0  0  0  0  0  0
M  CHG  1   1  -1
M  END
>  <Name>  (104) 
Hydroxide_ion

>  <logK_Ce_z=3.0_T=25_I=3.0>  (104) 
4.9

>  <logK_Ce_z=4.0_T=25_I=1.5>  (104) 
13.17

$$$$

     RDKit          2D

  3  2  0  0  0  0  0  0  0  0999 V2000
    0.0000    0.0000    0.0000 C   0  0  0  0  0  0  0  0  0  0  0  0
   -0.0000   -1.5000    0.0000 S   0  0  0  0  0  0  0  0  0  0  0  0
    0.0000    1.5000    0.0000 N   0  0  0  0  0  0  0  0  0  0  0  0
  1  2  1  0
  1  3  3  0
M  END
>  <Name>  (105) 
Hydrogen_thiocyanate_(Thiocyanic_acid)

>  <logK_Ce_z=3.0_T=25_I=5.0>  (105) 
0.59

$$$$

     RDKit          2D

  3  2  0  0  0  0  0  0  0  0999 V2000
    1.2990    0.7500    0.0000 N   0  0  0  0  0  4  0  0  0  0  0  0
    0.0000    0.0000    0.0000 N   0  0  0  0  0  0  0  0  0  0  0  0
    2.5981    1.5000    0.0000 N   0  0  0  0  0  2  0  0  0  0  0  0
  1  2  2  0
  1  3  2  0
M  CHG  2   1   1   3  -1
M  END
>  <Name>  (106) 
Hydrogen_azide_(Hydrazoic_acid)

>  <logK_Ce_z=3.0_T=25_I=3.0>  (106) 
0.64

$$$$

     RDKit          2D

  4  3  0  0  0  0  0  0  0  0999 V2000
    1.2990    0.7500    0.0000 O   0  0  0  0  0  1  0  0  0  0  0  0
    0.0000    0.0000    0.0000 N   0  0  0  0  0  4  0  0  0  0  0  0
   -1.2990    0.7500    0.0000 O   0  0  0  0  0  1  0  0  0  0  0  0
   -0.0000   -1.5000    0.0000 O   0  0  0  0  0  0  0  0  0  0  0  0
  1  2  1  0
  2  3  1  0
  2  4  2  0
M  CHG  3   1  -1   2   1   3  -1
M  END
>  <Name>  (107) 
Nitrate_ion

>  <logK_Ce_z=3.0_T=25_I=1.0>  (107) 
0.2

>  <logK_Ce_z=4.0_T=22_I=3.5>  (107) 
0.32

$$$$

     RDKit          2D

  1  0  0  0  0  0  0  0  0  0999 V2000
    0.0000    0.0000    0.0000 F   0  0  0  0  0  0  0  0  0  0  0  0
M  END
>  <Name>  (108) 
Hydrogen_fluoride_(Hydrofluoric_acid)

>  <logK_Ce_z=3.0_T=25_I=0.1>  (108) 
3.24

>  <logK_Ce_z=3.0_T=25_I=0.5>  (108) 
2.9

>  <logK_Ce_z=3.0_T=25_I=1.0>  (108) 
2.81

>  <logK_Ce_z=3.0_T=25_I=0.0>  (108) 
3.94

$$$$

     RDKit          2D

  1  0  0  0  0  0  0  0  0  0999 V2000
    0.0000    0.0000    0.0000 Cl  0  0  0  0  0 15  0  0  0  0  0  0
M  CHG  1   1  -1
M  END
>  <Name>  (109) 
Chloride_ion

>  <logK_Ce_z=3.0_T=25_I=1.0>  (109) 
-0.1

$$$$

     RDKit          2D

  5  4  0  0  0  0  0  0  0  0999 V2000
    1.2990    0.7500    0.0000 Cl  0  0  0  0  0  0  0  0  0  0  0  0
    0.0000    0.0000    0.0000 O   0  0  0  0  0  0  0  0  0  0  0  0
    2.5981    1.5000    0.0000 O   0  0  0  0  0  1  0  0  0  0  0  0
    2.0490   -0.5490    0.0000 O   0  0  0  0  0  0  0  0  0  0  0  0
    0.5490    2.0490    0.0000 O   0  0  0  0  0  0  0  0  0  0  0  0
  1  2  1  0
  1  3  1  0
  1  4  1  0
  1  5  1  0
M  CHG  5   1   3   2  -1   3  -1   4  -1   5  -1
M  END
>  <Name>  (110) 
Perchlorate_ion

>  <logK_Ce_z=3.0_T=25_I=1.0>  (110) 
0.15

>  <logK_Ce_z=3.0_T=25_I=5.0>  (110) 
-0.21

$$$$

     RDKit          2D

  1  0  0  0  0  0  0  0  0  0999 V2000
    0.0000    0.0000    0.0000 Br  0  0  0  0  0 15  0  0  0  0  0  0
M  CHG  1   1  -1
M  END
>  <Name>  (111) 
Bromide_ion

>  <logK_Ce_z=3.0_T=25_I=1.0>  (111) 
-0.2

$$$$

     RDKit          2D

  4  3  0  0  0  0  0  0  0  0999 V2000
    1.2990    0.7500    0.0000 I   0  0  0  0  0  0  0  0  0  0  0  0
    0.0000    0.0000    0.0000 O   0  0  0  0  0  0  0  0  0  0  0  0
    2.5981   -0.0000    0.0000 O   0  0  0  0  0  0  0  0  0  0  0  0
    1.2990    2.2500    0.0000 O   0  0  0  0  0  0  0  0  0  0  0  0
  1  2  1  0
  1  3  1  0
  1  4  1  0
M  CHG  3   1   2   3  -1   4  -1
M  END
>  <Name>  (112) 
Hydrogen_iodate_(Iodic_acid)

>  <logK_Ce_z=3.0_T=25_I=0.1>  (112) 
1.22

>  <logK_Ce_z=3.0_T=25_I=0.0>  (112) 
1.9

$$$$

     RDKit          2D

 54 57  0  0  0  0  0  0  0  0999 V2000
   -0.7500  -22.0836    0.0000 O   0  0  0  0  0  0  0  0  0  0  0  0
    0.7500  -22.0836    0.0000 C   0  0  0  0  0  0  0  0  0  0  0  0
    1.5000  -20.7846    0.0000 N   0  0  0  0  0  0  0  0  0  0  0  0
    0.7500  -19.4856    0.0000 C   0  0  0  0  0  0  0  0  0  0  0  0
    1.5000  -18.1865    0.0000 C   0  0  0  0  0  0  0  0  0  0  0  0
    0.7500  -16.8875    0.0000 C   0  0  0  0  0  0  0  0  0  0  0  0
    1.5000  -15.5885    0.0000 N   0  0  0  0  0  0  0  0  0  0  0  0
    0.7500  -14.2894    0.0000 C   0  0  0  0  0  0  0  0  0  0  0  0
    1.5000  -12.9904    0.0000 C   0  0  0  0  0  0  0  0  0  0  0  0
    0.7500  -11.6913    0.0000 C   0  0  0  0  0  0  0  0  0  0  0  0
    1.5000  -10.3923    0.0000 C   0  0  0  0  0  0  0  0  0  0  0  0
    0.7500   -9.0933    0.0000 N   0  0  0  0  0  0  0  0  0  0  0  0
    1.5000   -7.7942    0.0000 C   0  0  0  0  0  0  0  0  0  0  0  0
    0.7500   -6.4952    0.0000 C   0  0  0  0  0  0  0  0  0  0  0  0
    1.5000   -5.1962    0.0000 C   0  0  0  0  0  0  0  0  0  0  0  0
    0.7500   -3.8971    0.0000 N   0  0  0  0  0  0  0  0  0  0  0  0
    1.5000   -2.5981    0.0000 C   0  0  0  0  0  0  0  0  0  0  0  0
    3.0000   -2.5981    0.0000 O   0  0  0  0  0  0  0  0  0  0  0  0
    0.7500   -1.2990    0.0000 C   0  0  0  0  0  0  0  0  0  0  0  0
    1.5000    0.0000    0.0000 C   0  0  0  0  0  0  0  0  0  0  0  0
    0.7500    1.2990    0.0000 C   0  0  0  0  0  0  0  0  0  0  0  0
   -0.7500    1.2990    0.0000 C   0  0  0  0  0  0  0  0  0  0  0  0
   -1.5000    0.0000    0.0000 C   0  0  0  0  0  0  0  0  0  0  0  0
   -3.0000    0.0000    0.0000 O   0  0  0  0  0  0  0  0  0  0  0  0
   -0.7500   -1.2990    0.0000 N   0  0  0  0  0  0  0  0  0  0  0  0
   -1.5000   -2.5981    0.0000 O   0  0  0  0  0  0  0  0  0  0  0  0
   -0.7500   -9.0933    0.0000 C   0  0  0  0  0  0  0  0  0  0  0  0
   -1.5000   -7.7942    0.0000 O   0  0  0  0  0  0  0  0  0  0  0  0
   -1.5000  -10.3923    0.0000 C   0  0  0  0  0  0  0  0  0  0  0  0
   -0.7500  -11.6913    0.0000 C   0  0  0  0  0  0  0  0  0  0  0  0
   -1.5000  -12.9904    0.0000 C   0  0  0  0  0  0  0  0  0  0  0  0
   -3.0000  -12.9904    0.0000 C   0  0  0  0  0  0  0  0  0  0  0  0
   -3.7500  -11.6913    0.0000 C   0  0  0  0  0  0  0  0  0  0  0  0
   -5.2500  -11.6913    0.0000 O   0  0  0  0  0  0  0  0  0  0  0  0
   -3.0000  -10.3923    0.0000 N   0  0  0  0  0  0  0  0  0  0  0  0
   -3.7500   -9.0933    0.0000 O   0  0  0  0  0  0  0  0  0  0  0  0
    3.0000  -15.5885    0.0000 C   0  0  0  0  0  0  0  0  0  0  0  0
    3.7500  -14.2894    0.0000 O   0  0  0  0  0  0  0  0  0  0  0  0
    3.7500  -16.8875    0.0000 C   0  0  0  0  0  0  0  0  0  0  0  0
    3.0000  -18.1865    0.0000 C   0  0  0  0  0  0  0  0  0  0  0  0
    3.7500  -19.4856    0.0000 C   0  0  0  0  0  0  0  0  0  0  0  0
    5.2500  -19.4856    0.0000 C   0  0  0  0  0  0  0  0  0  0  0  0
    6.0000  -18.1865    0.0000 C   0  0  0  0  0  0  0  0  0  0  0  0
    7.5000  -18.1865    0.0000 O   0  0  0  0  0  0  0  0  0  0  0  0
    5.2500  -16.8875    0.0000 N   0  0  0  0  0  0  0  0  0  0  0  0
    6.0000  -15.5885    0.0000 O   0  0  0  0  0  0  0  0  0  0  0  0
    1.5000  -23.3827    0.0000 C   0  0  0  0  0  0  0  0  0  0  0  0
    0.7500  -24.6817    0.0000 C   0  0  0  0  0  0  0  0  0  0  0  0
    1.5000  -25.9808    0.0000 C   0  0  0  0  0  0  0  0  0  0  0  0
    3.0000  -25.9808    0.0000 C   0  0  0  0  0  0  0  0  0  0  0  0
    3.7500  -24.6817    0.0000 C   0  0  0  0  0  0  0  0  0  0  0  0
    5.2500  -24.6817    0.0000 O   0  0  0  0  0  0  0  0  0  0  0  0
    3.0000  -23.3827    0.0000 N   0  0  0  0  0  0  0  0  0  0  0  0
    3.7500  -22.0836    0.0000 O   0  0  0  0  0  0  0  0  0  0  0  0
  1  2  2  0
  2  3  1  0
  3  4  1  0
  4  5  1  0
  5  6  1  0
  6  7  1  0
  7  8  1  0
  8  9  1  0
  9 10  1  0
 10 11  1  0
 11 12  1  0
 12 13  1  0
 13 14  1  0
 14 15  1  0
 15 16  1  0
 16 17  1  0
 17 18  2  0
 17 19  1  0
 19 20  2  0
 20 21  1  0
 21 22  2  0
 22 23  1  0
 23 24  2  0
 23 25  1  0
 25 26  1  0
 12 27  1  0
 27 28  2  0
 27 29  1  0
 29 30  2  0
 30 31  1  0
 31 32  2  0
 32 33  1  0
 33 34  2  0
 33 35  1  0
 35 36  1  0
  7 37  1  0
 37 38  2  0
 37 39  1  0
 39 40  2  0
 40 41  1  0
 41 42  2  0
 42 43  1  0
 43 44  2  0
 43 45  1  0
 45 46  1  0
  2 47  1  0
 47 48  2  0
 48 49  1  0
 49 50  2  0
 50 51  1  0
 51 52  2  0
 51 53  1  0
 53 54  1  0
 25 19  1  0
 35 29  1  0
 45 39  1  0
 53 47  1  0
M  END
>  <Name>  (113) 
3,4,3-LI(1,2-HOPO)

>  <logK_Ce_z=4.0_T=25_I=0.4>  (113) 
41.5

>  <logK_Ce_z=3.0_T=25_I=0.4>  (113) 
17.4

$$$$

     RDKit          2D

 15 15  0  0  0  0  0  0  0  0999 V2000
    9.6027   -8.2056    0.0000 O   0  0  0  0  0  0  0  0  0  0  0  0
   10.8554   -6.4349    0.0000 C   0  0  0  0  0  0  0  0  0  0  0  0
   12.9181   -7.0094    0.0000 C   0  0  0  0  0  0  0  0  0  0  0  0
   14.2274   -5.2575    0.0000 O   0  0  0  0  0  0  0  0  0  0  0  0
   16.3938   -5.9356    0.0000 C   0  0  0  0  0  0  0  0  0  0  0  0
   16.3938   -8.1491    0.0000 C   0  0  0  0  0  0  0  0  0  0  0  0
   18.5036   -8.8367    0.0000 O   0  0  0  0  0  0  0  0  0  0  0  0
   18.5036  -11.0502    0.0000 C   0  0  0  0  0  0  0  0  0  0  0  0
   16.4126  -11.8037    0.0000 C   0  0  0  0  0  0  0  0  0  0  0  0
   16.3655  -13.9701    0.0000 O   0  0  0  0  0  0  0  0  0  0  0  0
   14.2745  -14.6765    0.0000 C   0  0  0  0  0  0  0  0  0  0  0  0
   12.9464  -12.9057    0.0000 C   0  0  0  0  0  0  0  0  0  0  0  0
   10.8554  -13.4991    0.0000 O   0  0  0  0  0  0  0  0  0  0  0  0
    9.6309  -11.7566    0.0000 C   0  0  0  0  0  0  0  0  0  0  0  0
   10.8554   -9.9764    0.0000 C   0  0  0  0  0  0  0  0  0  0  0  0
  1  2  1  0
  2  3  1  0
  3  4  1  0
  4  5  1  0
  5  6  1  0
  6  7  1  0
  7  8  1  0
  8  9  1  0
  9 10  1  0
 10 11  1  0
 11 12  1  0
 12 13  1  0
 13 14  1  0
 14 15  1  0
 15  1  1  0
M  END
>  <Name>  (114) 
15C5-1

>  <logK_Ce_z=3.0_T=25_I=1.0>  (114) 
5.6

$$$$

     RDKit          2D

 18 18  0  0  0  0  0  0  0  0999 V2000
    8.5108  -14.7466    0.0000 C   0  0  0  0  0  0  0  0  0  0  0  0
    6.7277  -13.7171    0.0000 C   0  0  0  0  0  0  0  0  0  0  0  0
   13.8386  -13.7329    0.0000 C   0  0  0  0  0  0  0  0  0  0  0  0
   12.0808  -14.7506    0.0000 C   0  0  0  0  0  0  0  0  0  0  0  0
   15.6333   -8.5975    0.0000 C   0  0  0  0  0  0  0  0  0  0  0  0
   15.6202  -10.6471    0.0000 C   0  0  0  0  0  0  0  0  0  0  0  0
   12.0617   -4.4783    0.0000 C   0  0  0  0  0  0  0  0  0  0  0  0
   13.8448   -5.5078    0.0000 C   0  0  0  0  0  0  0  0  0  0  0  0
    4.9417   -8.5962    0.0000 C   0  0  0  0  0  0  0  0  0  0  0  0
    4.9670  -10.6434    0.0000 C   0  0  0  0  0  0  0  0  0  0  0  0
    6.7232   -5.5105    0.0000 C   0  0  0  0  0  0  0  0  0  0  0  0
    8.5194   -4.4904    0.0000 C   0  0  0  0  0  0  0  0  0  0  0  0
    6.7379   -7.5761    0.0000 O   0  0  0  0  0  0  0  0  0  0  0  0
   10.2933   -5.5145    0.0000 O   0  0  0  0  0  0  0  0  0  0  0  0
   13.8317   -7.5574    0.0000 O   0  0  0  0  0  0  0  0  0  0  0  0
   13.8517  -11.6833    0.0000 O   0  0  0  0  0  0  0  0  0  0  0  0
   10.2793  -13.7104    0.0000 O   0  0  0  0  0  0  0  0  0  0  0  0
    6.7408  -11.6675    0.0000 O   0  0  0  0  0  0  0  0  0  0  0  0
  1  2  1  0
  3  4  1  0
  5  6  1  0
  7  8  1  0
  9 10  1  0
 11 12  1  0
 11 13  1  0
  9 13  1  0
 12 14  1  0
  7 14  1  0
  8 15  1  0
  5 15  1  0
  6 16  1  0
  3 16  1  0
  4 17  1  0
  1 17  1  0
  2 18  1  0
 10 18  1  0
M  END
>  <Name>  (115) 
18C6-1

>  <logK_Ce_z=3.0_T=25_I=1.0>  (115) 
4.23

$$$$

     RDKit          2D

 18 19  0  0  0  0  0  0  0  0999 V2000
   14.8171   -7.5073    0.0000 C   0  0  0  0  0  0  0  0  0  0  0  0
   14.8171   -8.8373    0.0000 C   0  0  0  0  0  0  0  0  0  0  0  0
   13.6653   -6.8423    0.0000 C   0  0  0  0  0  0  0  0  0  0  0  0
   13.6653   -9.5023    0.0000 C   0  0  0  0  0  0  0  0  0  0  0  0
   12.5135   -7.5073    0.0000 C   0  0  0  0  0  0  0  0  0  0  0  0
   12.5135   -8.8373    0.0000 C   0  0  0  0  0  0  0  0  0  0  0  0
   17.1208   -7.5073    0.0000 C   0  0  0  0  0  0  0  0  0  0  0  0
   17.1208   -8.8373    0.0000 C   0  0  0  0  0  0  0  0  0  0  0  0
   15.9690   -6.8423    0.0000 C   0  0  0  0  0  0  0  0  0  0  0  0
   15.9690   -9.5023    0.0000 C   0  0  0  0  0  0  0  0  0  0  0  0
   15.9690  -10.8323    0.0000 S   0  0  0  0  0  0  0  0  0  0  0  0
   17.2990  -10.8323    0.0000 O   0  0  0  0  0  0  0  0  0  0  0  0
   14.6390  -10.8323    0.0000 O   0  0  0  0  0  0  0  0  0  0  0  0
   15.9690  -12.1623    0.0000 O   0  0  0  0  0  0  0  0  0  0  0  0
   15.9690   -5.5123    0.0000 O   0  0  0  0  0  0  0  0  0  0  0  0
   18.2726   -6.8423    0.0000 C   0  0  0  0  0  0  0  0  0  0  0  0
   18.2726   -5.5123    0.0000 O   0  0  0  0  0  0  0  0  0  0  0  0
   19.4244   -7.5073    0.0000 O   0  0  0  0  0  0  0  0  0  0  0  0
  3  1  2  0
  4  2  2  0
  5  3  1  0
  6  4  1  0
  6  5  2  0
  8  7  1  0
  9  7  2  0
 10  8  2  0
  1  9  1  0
  2 10  1  0
  2  1  1  0
 10 11  1  0
 11 12  2  0
 11 13  1  0
 11 14  2  0
  9 15  1  0
  7 16  1  0
 16 17  1  0
 16 18  2  0
M  END
>  <Name>  (116) 
1HSN

>  <logK_Ce_z=3.0_T=25_I=1.0>  (116) 
7.56

$$$$

     RDKit          2D

 10  9  0  0  0  0  0  0  0  0999 V2000
   11.3101  -10.1869    0.0000 C   0  0  0  0  0  0  0  0  0  0  0  0
   12.1291   -8.7695    0.0000 C   0  0  0  0  0  0  0  0  0  0  0  0
   13.7567   -8.7744    0.0000 C   0  0  0  0  0  0  0  0  0  0  0  0
   15.3788   -8.7698    0.0000 C   0  0  0  0  0  0  0  0  0  0  0  0
   13.7612  -10.3963    0.0000 C   0  0  0  0  0  0  0  0  0  0  0  0
   15.1692  -11.2208    0.0000 C   0  0  0  0  0  0  0  0  0  0  0  0
   11.3111   -7.3526    0.0000 C   0  0  0  0  0  0  0  0  0  0  0  0
   13.7466   -7.1428    0.0000 O   0  0  0  0  0  0  0  0  0  0  0  0
   16.1968  -10.1867    0.0000 O   0  0  0  0  0  0  0  0  0  0  0  0
   16.2033   -7.3618    0.0000 O   0  0  0  0  0  0  0  0  0  0  0  0
  1  2  1  0
  2  3  1  0
  3  4  1  0
  3  5  1  0
  5  6  1  0
  2  7  1  0
  3  8  1  0
  4  9  1  0
  4 10  2  0
M  END
>  <Name>  (117) 
2-Ethyl-2-hydroxy-3-methylbutanoic

>  <logK_Ce_z=3.0_T=25_I=1.0>  (117) 
1.91

$$$$

     RDKit          2D

  9  8  0  0  0  0  0  0  0  0999 V2000
   10.8642   -7.6204    0.0000 C   0  0  0  0  0  0  0  0  0  0  0  0
   12.8152   -7.6204    0.0000 C   0  0  0  0  0  0  0  0  0  0  0  0
   13.7907   -9.3100    0.0000 C   0  0  0  0  0  0  0  0  0  0  0  0
   15.7417   -9.3100    0.0000 C   0  0  0  0  0  0  0  0  0  0  0  0
   17.6927   -9.3100    0.0000 C   0  0  0  0  0  0  0  0  0  0  0  0
   15.7417   -7.3590    0.0000 C   0  0  0  0  0  0  0  0  0  0  0  0
   15.7417  -11.2610    0.0000 O   0  0  0  0  0  0  0  0  0  0  0  0
   18.6682  -10.9996    0.0000 O   0  0  0  0  0  0  0  0  0  0  0  0
   18.6682   -7.6204    0.0000 O   0  0  0  0  0  0  0  0  0  0  0  0
  1  2  1  0
  2  3  1  0
  3  4  1  0
  4  5  1  0
  4  6  1  0
  4  7  1  0
  5  8  1  0
  5  9  2  0
M  END
>  <Name>  (118) 
2-Hydroxy-2-methylbutanoic

>  <logK_Ce_z=3.0_T=25_I=1.0>  (118) 
2.51

$$$$

     RDKit          2D

 23 23  0  0  0  0  0  0  0  0999 V2000
   16.1095  -23.9210    0.0000 C   0  0  0  0  0  0  0  0  0  0  0  0
   14.1072  -23.9211    0.0000 C   0  0  0  0  0  0  0  0  0  0  0  0
   19.8706  -19.7137    0.0000 C   0  0  0  0  0  0  0  0  0  0  0  0
   19.2627  -21.6035    0.0000 C   0  0  0  0  0  0  0  0  0  0  0  0
   17.9257  -23.1057    0.0000 O   0  0  0  0  0  0  0  0  0  0  0  0
   10.3291  -19.7376    0.0000 C   0  0  0  0  0  0  0  0  0  0  0  0
   10.9477  -21.6450    0.0000 C   0  0  0  0  0  0  0  0  0  0  0  0
   12.2907  -23.1270    0.0000 O   0  0  0  0  0  0  0  0  0  0  0  0
   17.0290  -14.8374    0.0000 C   0  0  0  0  0  0  0  0  0  0  0  0
   18.6558  -16.0047    0.0000 C   0  0  0  0  0  0  0  0  0  0  0  0
   11.5204  -16.0337    0.0000 C   0  0  0  0  0  0  0  0  0  0  0  0
   13.1351  -14.8447    0.0000 C   0  0  0  0  0  0  0  0  0  0  0  0
   15.0902  -14.4235    0.0000 O   0  0  0  0  0  0  0  0  0  0  0  0
   10.5312  -17.7591    0.0000 N   0  0  0  0  0  0  0  0  0  0  0  0
   19.6561  -17.7260    0.0000 N   0  0  0  0  0  0  0  0  0  0  0  0
   21.5632  -17.1079    0.0000 C   0  0  0  0  0  0  0  0  0  0  0  0
   23.0526  -18.4408    0.0000 C   0  0  0  0  0  0  0  0  0  0  0  0
    8.6279  -17.1469    0.0000 C   0  0  0  0  0  0  0  0  0  0  0  0
    7.1500  -18.4770    0.0000 C   0  0  0  0  0  0  0  0  0  0  0  0
    7.5710  -20.4327    0.0000 O   0  0  0  0  0  0  0  0  0  0  0  0
    5.2473  -17.8650    0.0000 O   0  0  0  0  0  0  0  0  0  0  0  0
   22.6346  -20.3923    0.0000 O   0  0  0  0  0  0  0  0  0  0  0  0
   24.9465  -17.8178    0.0000 O   0  0  0  0  0  0  0  0  0  0  0  0
  1  2  1  0
  3  4  1  0
  4  5  1  0
  1  5  1  0
  6  7  1  0
  7  8  1  0
  2  8  1  0
  9 10  1  0
 11 12  1  0
 12 13  1  0
  9 13  1  0
 11 14  1  0
  6 14  1  0
 10 15  1  0
  3 15  1  0
 15 16  1  0
 16 17  1  0
 14 18  1  0
 18 19  1  0
 19 20  1  0
 19 21  2  0
 17 22  2  0
 17 23  1  0
M  END
>  <Name>  (119) 
A2-15C5-8

>  <logK_Ce_z=3.0_T=25_I=1.0>  (119) 
10.89

$$$$

     RDKit          2D

 18 18  0  0  0  0  0  0  0  0999 V2000
    7.1746   -8.8174    0.0000 C   0  0  0  0  0  0  0  0  0  0  0  0
    8.0512   -7.2949    0.0000 C   0  0  0  0  0  0  0  0  0  0  0  0
   12.5079   -5.7540    0.0000 C   0  0  0  0  0  0  0  0  0  0  0  0
   10.7270   -5.7540    0.0000 C   0  0  0  0  0  0  0  0  0  0  0  0
   16.0603   -8.8174    0.0000 C   0  0  0  0  0  0  0  0  0  0  0  0
   15.1561   -7.2949    0.0000 C   0  0  0  0  0  0  0  0  0  0  0  0
   13.3845   -7.2949    0.0000 O   0  0  0  0  0  0  0  0  0  0  0  0
    9.8505   -7.2949    0.0000 O   0  0  0  0  0  0  0  0  0  0  0  0
   15.1561  -13.4402    0.0000 C   0  0  0  0  0  0  0  0  0  0  0  0
   16.0603  -11.8993    0.0000 C   0  0  0  0  0  0  0  0  0  0  0  0
    7.1746  -11.8993    0.0000 C   0  0  0  0  0  0  0  0  0  0  0  0
    8.0512  -13.4402    0.0000 C   0  0  0  0  0  0  0  0  0  0  0  0
   10.7270  -14.9812    0.0000 C   0  0  0  0  0  0  0  0  0  0  0  0
   12.5079  -14.9812    0.0000 C   0  0  0  0  0  0  0  0  0  0  0  0
    9.8505  -13.4402    0.0000 O   0  0  0  0  0  0  0  0  0  0  0  0
   13.3845  -13.4402    0.0000 O   0  0  0  0  0  0  0  0  0  0  0  0
   15.1561  -10.3584    0.0000 N   0  0  0  0  0  0  0  0  0  0  0  0
    8.0512  -10.3584    0.0000 N   0  0  0  0  0  0  0  0  0  0  0  0
  1  2  1  0
  3  4  1  0
  5  6  1  0
  6  7  1  0
  3  7  1  0
  4  8  1  0
  2  8  1  0
  9 10  1  0
 11 12  1  0
 13 14  1  0
 13 15  1  0
 12 15  1  0
 14 16  1  0
  9 16  1  0
 10 17  1  0
  5 17  1  0
 11 18  1  0
  1 18  1  0
M  END
>  <Name>  (120) 
A2-18C6-1

>  <logK_Ce_z=3.0_T=25_I=1.0>  (120) 
10.81

$$$$

     RDKit          2D

 26 26  0  0  0  0  0  0  0  0999 V2000
   15.5525  -13.8429    0.0000 C   0  0  0  0  0  0  0  0  0  0  0  0
   14.0086  -14.7475    0.0000 C   0  0  0  0  0  0  0  0  0  0  0  0
   21.9873  -11.4892    0.0000 C   0  0  0  0  0  0  0  0  0  0  0  0
   22.5768  -13.1841    0.0000 C   0  0  0  0  0  0  0  0  0  0  0  0
   18.6566  -12.0430    0.0000 C   0  0  0  0  0  0  0  0  0  0  0  0
   18.6693  -13.8464    0.0000 C   0  0  0  0  0  0  0  0  0  0  0  0
   18.6540   -8.4710    0.0000 C   0  0  0  0  0  0  0  0  0  0  0  0
   20.2026   -9.3651    0.0000 C   0  0  0  0  0  0  0  0  0  0  0  0
   20.2247  -11.1524    0.0000 N   0  0  0  0  0  0  0  0  0  0  0  0
    9.1399   -9.0218    0.0000 C   0  0  0  0  0  0  0  0  0  0  0  0
    7.9644  -10.3777    0.0000 C   0  0  0  0  0  0  0  0  0  0  0  0
   10.8905  -11.1512    0.0000 C   0  0  0  0  0  0  0  0  0  0  0  0
   12.4633  -12.0593    0.0000 C   0  0  0  0  0  0  0  0  0  0  0  0
   12.4458   -8.4573    0.0000 C   0  0  0  0  0  0  0  0  0  0  0  0
   12.4573   -6.6679    0.0000 C   0  0  0  0  0  0  0  0  0  0  0  0
   10.9019   -9.3619    0.0000 N   0  0  0  0  0  0  0  0  0  0  0  0
   15.5648   -6.6875    0.0000 C   0  0  0  0  0  0  0  0  0  0  0  0
   17.1087   -5.7829    0.0000 C   0  0  0  0  0  0  0  0  0  0  0  0
   13.9919   -5.7794    0.0000 O   0  0  0  0  0  0  0  0  0  0  0  0
   18.6654   -6.6816    0.0000 O   0  0  0  0  0  0  0  0  0  0  0  0
   17.1012  -14.7370    0.0000 O   0  0  0  0  0  0  0  0  0  0  0  0
   12.4519  -13.8487    0.0000 O   0  0  0  0  0  0  0  0  0  0  0  0
   24.3394  -13.5210    0.0000 O   0  0  0  0  0  0  0  0  0  0  0  0
   21.4038  -14.5421    0.0000 O   0  0  0  0  0  0  0  0  0  0  0  0
    6.2025  -10.0376    0.0000 O   0  0  0  0  0  0  0  0  0  0  0  0
    8.5509  -12.0736    0.0000 O   0  0  0  0  0  0  0  0  0  0  0  0
  1  2  1  0
  3  4  1  0
  5  6  1  0
  7  8  1  0
  8  9  1  0
  5  9  1  0
  3  9  1  0
 10 11  1  0
 12 13  1  0
 14 15  1  0
 14 16  1  0
 12 16  1  0
 10 16  1  0
 17 18  1  0
 17 19  1  0
 15 19  1  0
 18 20  1  0
  7 20  1  0
  6 21  1  0
  1 21  1  0
  2 22  1  0
 13 22  1  0
  4 23  1  0
  4 24  2  0
 11 25  1  0
 11 26  2  0
M  END
>  <Name>  (121) 
A2-18C6-17

>  <logK_Ce_z=3.0_T=25_I=1.0>  (121) 
12.23

$$$$

     RDKit          2D

 21 21  0  0  0  0  0  0  0  0999 V2000
    8.5663  -10.5633    0.0000 C   0  0  0  0  0  0  0  0  0  0  0  0
   10.2013  -12.1589    0.0000 C   0  0  0  0  0  0  0  0  0  0  0  0
   12.5013   -6.0591    0.0000 C   0  0  0  0  0  0  0  0  0  0  0  0
   10.2954   -6.5578    0.0000 C   0  0  0  0  0  0  0  0  0  0  0  0
   15.2437   -9.3640    0.0000 C   0  0  0  0  0  0  0  0  0  0  0  0
   14.4581  -11.4886    0.0000 C   0  0  0  0  0  0  0  0  0  0  0  0
   14.6630   -7.0739    0.0000 N   0  0  0  0  0  0  0  0  0  0  0  0
    8.5663   -8.1427    0.0000 N   0  0  0  0  0  0  0  0  0  0  0  0
   12.4542  -12.7828    0.0000 N   0  0  0  0  0  0  0  0  0  0  0  0
   16.5721   -5.4738    0.0000 C   0  0  0  0  0  0  0  0  0  0  0  0
   18.8758   -6.2822    0.0000 C   0  0  0  0  0  0  0  0  0  0  0  0
    6.2383   -7.2440    0.0000 C   0  0  0  0  0  0  0  0  0  0  0  0
    5.8223   -4.8431    0.0000 C   0  0  0  0  0  0  0  0  0  0  0  0
   12.9324  -15.2383    0.0000 C   0  0  0  0  0  0  0  0  0  0  0  0
   11.1129  -16.8597    0.0000 C   0  0  0  0  0  0  0  0  0  0  0  0
   19.4724   -8.6611    0.0000 O   0  0  0  0  0  0  0  0  0  0  0  0
   20.7112   -4.6336    0.0000 O   0  0  0  0  0  0  0  0  0  0  0  0
    7.6144   -3.1693    0.0000 O   0  0  0  0  0  0  0  0  0  0  0  0
    3.4852   -4.0521    0.0000 O   0  0  0  0  0  0  0  0  0  0  0  0
    8.7454  -16.2236    0.0000 O   0  0  0  0  0  0  0  0  0  0  0  0
   11.6663  -19.2644    0.0000 O   0  0  0  0  0  0  0  0  0  0  0  0
  1  2  1  0
  3  4  1  0
  5  6  1  0
  5  7  1  0
  3  7  1  0
  4  8  1  0
  1  8  1  0
  2  9  1  0
  6  9  1  0
  7 10  1  0
 10 11  1  0
  8 12  1  0
 12 13  1  0
  9 14  1  0
 14 15  1  0
 11 16  1  0
 11 17  2  0
 13 18  1  0
 13 19  2  0
 15 20  2  0
 15 21  1  0
M  END
>  <Name>  (122) 
A3-9C3-5

>  <logK_Ce_z=3.0_T=25_I=1.0>  (122) 
13.23

$$$$

     RDKit          2D

 10  9  0  0  0  0  0  0  0  0999 V2000
   13.2808   -8.5769    0.0000 C   0  0  0  0  0  0  0  0  0  0  0  0
   14.4326   -9.2419    0.0000 C   0  0  0  0  0  0  0  0  0  0  0  0
   15.5844   -8.5769    0.0000 C   0  0  0  0  0  0  0  0  0  0  0  0
   16.7362   -9.2419    0.0000 C   0  0  0  0  0  0  0  0  0  0  0  0
   17.8880   -8.5769    0.0000 C   0  0  0  0  0  0  0  0  0  0  0  0
   19.0398   -9.2419    0.0000 C   0  0  0  0  0  0  0  0  0  0  0  0
   13.2808   -7.2469    0.0000 O   0  0  0  0  0  0  0  0  0  0  0  0
   12.1290   -9.2419    0.0000 O   0  0  0  0  0  0  0  0  0  0  0  0
   20.1917   -8.5769    0.0000 O   0  0  0  0  0  0  0  0  0  0  0  0
   19.0398  -10.5719    0.0000 O   0  0  0  0  0  0  0  0  0  0  0  0
  2  1  1  0
  3  2  1  0
  4  3  1  0
  5  4  1  0
  6  5  1  0
  1  7  1  0
  1  8  2  0
  6  9  1  0
  6 10  2  0
M  END
>  <Name>  (123) 
ADIPIC

>  <logK_Ce_z=3.0_T=25_I=1.0>  (123) 
4.19

$$$$

     RDKit          2D

 19 21  0  0  0  0  0  0  0  0999 V2000
   21.4703   -7.7557    0.0000 N   0  0  0  0  0  0  0  0  0  0  0  0
   21.4703   -9.0857    0.0000 C   0  0  0  0  0  0  0  0  0  0  0  0
   20.3185   -7.0907    0.0000 C   0  0  0  0  0  0  0  0  0  0  0  0
   20.3185   -9.7507    0.0000 N   0  0  0  0  0  0  0  0  0  0  0  0
   19.1667   -7.7557    0.0000 N   0  0  0  0  0  0  0  0  0  0  0  0
   19.1667   -9.0857    0.0000 C   0  0  0  0  0  0  0  0  0  0  0  0
   22.6222   -9.7507    0.0000 C   0  0  0  0  0  0  0  0  0  0  0  0
   23.7740   -9.0857    0.0000 C   0  0  0  0  0  0  0  0  0  0  0  0
   22.6222  -11.0807    0.0000 N   0  0  0  0  0  0  0  0  0  0  0  0
   24.9258   -9.7507    0.0000 C   0  0  0  0  0  0  0  0  0  0  0  0
   23.7740  -11.7457    0.0000 C   0  0  0  0  0  0  0  0  0  0  0  0
   24.9258  -11.0807    0.0000 C   0  0  0  0  0  0  0  0  0  0  0  0
   18.0149   -9.7507    0.0000 C   0  0  0  0  0  0  0  0  0  0  0  0
   18.0149  -11.0807    0.0000 N   0  0  0  0  0  0  0  0  0  0  0  0
   16.8631   -9.0857    0.0000 C   0  0  0  0  0  0  0  0  0  0  0  0
   16.8631  -11.7457    0.0000 C   0  0  0  0  0  0  0  0  0  0  0  0
   15.7113   -9.7507    0.0000 C   0  0  0  0  0  0  0  0  0  0  0  0
   15.7113  -11.0807    0.0000 C   0  0  0  0  0  0  0  0  0  0  0  0
   20.3185   -5.7607    0.0000 N   0  0  0  0  0  0  0  0  0  0  0  0
  2  1  2  0
  3  1  1  0
  4  2  1  0
  5  3  2  0
  6  4  2  0
  6  5  1  0
  8  7  2  0
  9  7  1  0
 10  8  1  0
 11  9  2  0
 12 10  2  0
 12 11  1  0
  2  7  1  0
 14 13  2  0
 15 13  1  0
 16 14  1  0
 17 15  2  0
 18 16  2  0
 18 17  1  0
  6 13  1  0
  3 19  1  0
M  END
>  <Name>  (124) 
ADPTZ

>  <logK_Ce_z=3.0_T=25_I=1.0>  (124) 
4.28

$$$$

     RDKit          2D

 14 13  0  0  1  0  0  0  0  0999 V2000
   12.0089   -7.9179    0.0000 C   0  0  0  0  0  0  0  0  0  0  0  0
   13.6634   -6.9633    0.0000 C   0  0  0  0  0  0  0  0  0  0  0  0
   13.6634   -5.0542    0.0000 C   0  0  0  0  0  0  0  0  0  0  0  0
   15.2921   -7.9179    0.0000 N   0  0  0  0  0  0  0  0  0  0  0  0
   15.2921   -9.8139    0.0000 C   0  0  0  0  0  0  0  0  0  0  0  0
   16.9466  -10.7685    0.0000 C   0  0  0  0  0  0  0  0  0  0  0  0
   16.9466   -6.9633    0.0000 C   0  0  0  0  0  0  0  0  0  0  0  0
   16.9466   -5.0542    0.0000 C   0  0  0  0  0  0  0  0  0  0  0  0
   18.6011   -9.8139    0.0000 O   0  0  0  0  0  0  0  0  0  0  0  0
   16.9466  -12.6773    0.0000 O   0  0  0  0  0  0  0  0  0  0  0  0
   15.2921   -4.0999    0.0000 O   0  0  0  0  0  0  0  0  0  0  0  0
   18.6011   -4.0999    0.0000 O   0  0  0  0  0  0  0  0  0  0  0  0
   12.0089   -9.8139    0.0000 O   0  0  0  0  0  0  0  0  0  0  0  0
   10.3545   -6.9633    0.0000 O   0  0  0  0  0  0  0  0  0  0  0  0
  1  2  1  0
  2  3  1  6
  2  4  1  0
  4  5  1  0
  5  6  1  0
  4  7  1  0
  7  8  1  0
  6  9  1  0
  6 10  2  0
  8 11  1  0
  8 12  2  0
  1 13  1  0
  1 14  2  0
M  END
>  <Name>  (125) 
ALANDIAC

>  <logK_Ce_z=3.0_T=25_I=1.0>  (125) 
11.5

$$$$

     RDKit          2D

 31 33  0  0  1  0  0  0  0  0999 V2000
   14.6483   -9.9926    0.0000 C   0  0  0  0  0  0  0  0  0  0  0  0
   16.7572  -10.6761    0.0000 C   0  0  0  0  0  0  0  0  0  0  0  0
   17.4407  -12.8013    0.0000 C   0  0  0  0  0  0  0  0  0  0  0  0
   19.6692  -12.8013    0.0000 C   0  0  0  0  0  0  0  0  0  0  0  0
   20.3673  -10.6761    0.0000 C   0  0  0  0  0  0  0  0  0  0  0  0
   18.5545   -9.3694    0.0000 O   0  0  0  0  0  0  0  0  0  0  0  0
   16.1331  -14.5987    0.0000 O   0  0  0  0  0  0  0  0  0  0  0  0
   20.9914  -14.5987    0.0000 O   0  0  0  0  0  0  0  0  0  0  0  0
   22.4771   -9.9926    0.0000 N   0  0  0  0  0  0  0  0  0  0  0  0
   24.2899  -11.3001    0.0000 C   0  0  0  0  0  0  0  0  0  0  0  0
   26.0872   -9.9926    0.0000 N   0  0  0  0  0  0  0  0  0  0  0  0
   23.1752   -7.8845    0.0000 C   0  0  0  0  0  0  0  0  0  0  0  0
   25.4038   -7.8845    0.0000 C   0  0  0  0  0  0  0  0  0  0  0  0
   26.5185   -5.9529    0.0000 C   0  0  0  0  0  0  0  0  0  0  0  0
   28.7462   -5.9529    0.0000 N   0  0  0  0  0  0  0  0  0  0  0  0
   25.4038   -4.0213    0.0000 N   0  0  0  0  0  0  0  0  0  0  0  0
   23.1752   -4.0213    0.0000 C   0  0  0  0  0  0  0  0  0  0  0  0
   22.0614   -5.9529    0.0000 N   0  0  0  0  0  0  0  0  0  0  0  0
   12.9990  -11.4783    0.0000 O   0  0  0  0  0  0  0  0  0  0  0  0
   10.8746  -10.7949    0.0000 P   0  0  0  0  0  0  0  0  0  0  0  0
    8.7648  -10.0968    0.0000 O   0  0  0  0  0  0  0  0  0  0  0  0
    7.1009  -11.5980    0.0000 P   0  0  0  0  0  0  0  0  0  0  0  0
    5.4517  -13.0837    0.0000 O   0  0  0  0  0  0  0  0  0  0  0  0
    3.3272  -12.4002    0.0000 P   0  0  0  0  0  0  0  0  0  0  0  0
    4.0107  -10.2749    0.0000 O   0  0  0  0  0  0  0  0  0  0  0  0
    2.6438  -14.5091    0.0000 O   0  0  0  0  0  0  0  0  0  0  0  0
    1.2028  -11.7013    0.0000 O   0  0  0  0  0  0  0  0  0  0  0  0
    5.6152   -9.9332    0.0000 O   0  0  0  0  0  0  0  0  0  0  0  0
    8.5866  -13.2464    0.0000 O   0  0  0  0  0  0  0  0  0  0  0  0
   10.1911  -12.9046    0.0000 O   0  0  0  0  0  0  0  0  0  0  0  0
   11.5727   -8.6868    0.0000 O   0  0  0  0  0  0  0  0  0  0  0  0
  2  1  1  1
  2  3  1  0
  3  4  1  0
  2  6  1  0
  5  6  1  0
  5  4  1  0
  3  7  1  0
  4  8  1  0
  5  9  1  1
  9 10  1  0
 10 11  2  0
  9 12  1  0
 12 13  2  0
 13 11  1  0
 13 14  1  0
 14 15  1  0
 14 16  2  0
 16 17  1  0
 17 18  2  0
 18 12  1  0
  1 19  1  0
 19 20  1  0
 20 21  1  0
 21 22  1  0
 22 23  1  0
 23 24  1  0
 24 25  1  0
 24 26  2  0
 24 27  1  0
 22 28  2  0
 22 29  1  0
 20 30  2  0
 20 31  1  0
M  END
>  <Name>  (126) 
ATP

>  <logK_Ce_z=3.0_T=25_I=1.0>  (126) 
6.46

$$$$

     RDKit          2D

 24 23  0  0  0  0  0  0  0  0999 V2000
   19.3113   -7.4037    0.0000 C   0  0  0  0  0  0  0  0  0  0  0  0
   20.4483   -6.7373    0.0000 C   0  0  0  0  0  0  0  0  0  0  0  0
   18.1560   -6.7373    0.0000 N   0  0  0  0  0  0  0  0  0  0  0  0
   21.6035   -7.4037    0.0000 N   0  0  0  0  0  0  0  0  0  0  0  0
   21.6035   -8.7276    0.0000 C   0  0  0  0  0  0  0  0  0  0  0  0
   22.7584   -9.3939    0.0000 C   0  0  0  0  0  0  0  0  0  0  0  0
   22.7584   -6.7373    0.0000 C   0  0  0  0  0  0  0  0  0  0  0  0
   22.7584   -5.4047    0.0000 C   0  0  0  0  0  0  0  0  0  0  0  0
   18.1560   -5.4047    0.0000 C   0  0  0  0  0  0  0  0  0  0  0  0
   17.0011   -4.7471    0.0000 C   0  0  0  0  0  0  0  0  0  0  0  0
   17.0011   -7.4037    0.0000 C   0  0  0  0  0  0  0  0  0  0  0  0
   17.0011   -8.7364    0.0000 C   0  0  0  0  0  0  0  0  0  0  0  0
   15.8462   -5.4135    0.0000 O   0  0  0  0  0  0  0  0  0  0  0  0
   17.0011   -3.4144    0.0000 O   0  0  0  0  0  0  0  0  0  0  0  0
   23.9134   -8.7276    0.0000 O   0  0  0  0  0  0  0  0  0  0  0  0
   22.7584  -10.7266    0.0000 O   0  0  0  0  0  0  0  0  0  0  0  0
   21.6035   -4.7383    0.0000 O   0  0  0  0  0  0  0  0  0  0  0  0
   23.9134   -4.7383    0.0000 O   0  0  0  0  0  0  0  0  0  0  0  0
   18.1560   -9.3939    0.0000 O   0  0  0  0  0  0  0  0  0  0  0  0
   15.8462   -9.4028    0.0000 O   0  0  0  0  0  0  0  0  0  0  0  0
   19.3113   -8.7276    0.0000 C   0  0  0  0  0  0  0  0  0  0  0  0
   20.4483   -9.3939    0.0000 C   0  0  0  0  0  0  0  0  0  0  0  0
   20.4483  -10.7266    0.0000 C   0  0  0  0  0  0  0  0  0  0  0  0
   19.3113  -11.3929    0.0000 C   0  0  0  0  0  0  0  0  0  0  0  0
  1  2  1  0
  1  3  1  0
  2  4  1  0
  4  5  1  0
  5  6  1  0
  4  7  1  0
  7  8  1  0
  3  9  1  0
  9 10  1  0
  3 11  1  0
 11 12  1  0
 10 13  1  0
 10 14  2  0
  6 15  1  0
  6 16  2  0
  8 17  1  0
  8 18  2  0
 12 19  1  0
 12 20  2  0
  1 21  1  0
 21 22  1  0
 22 23  1  0
 23 24  1  0
M  END
>  <Name>  (127) 
B-AEDNTA

>  <logK_Ce_z=3.0_T=25_I=1.0>  (127) 
17.1

$$$$

     RDKit          2D

 19 20  0  0  0  0  0  0  0  0999 V2000
   11.4473  -11.3073    0.0000 C   0  0  0  0  0  0  0  0  0  0  0  0
   11.4473   -9.0913    0.0000 C   0  0  0  0  0  0  0  0  0  0  0  0
    9.5282  -12.4154    0.0000 C   0  0  0  0  0  0  0  0  0  0  0  0
    9.5282   -7.9833    0.0000 C   0  0  0  0  0  0  0  0  0  0  0  0
    7.6090  -11.3073    0.0000 C   0  0  0  0  0  0  0  0  0  0  0  0
    7.6090   -9.0913    0.0000 C   0  0  0  0  0  0  0  0  0  0  0  0
   12.3487  -13.3318    0.0000 O   0  0  0  0  0  0  0  0  0  0  0  0
   12.3487   -7.0669    0.0000 O   0  0  0  0  0  0  0  0  0  0  0  0
   13.9955  -14.8146    0.0000 C   0  0  0  0  0  0  0  0  0  0  0  0
   16.1030  -15.4994    0.0000 C   0  0  0  0  0  0  0  0  0  0  0  0
   18.3069  -15.2678    0.0000 O   0  0  0  0  0  0  0  0  0  0  0  0
   20.2261  -14.1597    0.0000 C   0  0  0  0  0  0  0  0  0  0  0  0
   21.5286  -12.3669    0.0000 C   0  0  0  0  0  0  0  0  0  0  0  0
   21.9893  -10.1993    0.0000 O   0  0  0  0  0  0  0  0  0  0  0  0
   21.5286   -8.0317    0.0000 C   0  0  0  0  0  0  0  0  0  0  0  0
   20.2261   -6.2389    0.0000 C   0  0  0  0  0  0  0  0  0  0  0  0
   18.3069   -5.1309    0.0000 O   0  0  0  0  0  0  0  0  0  0  0  0
   16.1030   -4.8993    0.0000 C   0  0  0  0  0  0  0  0  0  0  0  0
   13.9955   -5.5841    0.0000 C   0  0  0  0  0  0  0  0  0  0  0  0
  2  1  1  0
  3  1  2  0
  4  2  2  0
  5  3  1  0
  6  4  1  0
  6  5  2  0
  1  7  1  0
  2  8  1  0
  7  9  1  0
  9 10  1  0
 10 11  1  0
 11 12  1  0
 12 13  1  0
 13 14  1  0
 14 15  1  0
 15 16  1  0
 16 17  1  0
 17 18  1  0
 18 19  1  0
 19  8  1  0
M  END
>  <Name>  (128) 
B15C5-1

>  <logK_Ce_z=3.0_T=25_I=1.0>  (128) 
2.3

$$$$

     RDKit          2D

  9  9  0  0  0  0  0  0  0  0999 V2000
   22.0322   -9.2098    0.0000 C   0  0  0  0  0  0  0  0  0  0  0  0
   22.0322  -10.5398    0.0000 C   0  0  0  0  0  0  0  0  0  0  0  0
   20.8803   -8.5448    0.0000 C   0  0  0  0  0  0  0  0  0  0  0  0
   20.8803  -11.2048    0.0000 C   0  0  0  0  0  0  0  0  0  0  0  0
   19.7285   -9.2098    0.0000 C   0  0  0  0  0  0  0  0  0  0  0  0
   19.7285  -10.5398    0.0000 C   0  0  0  0  0  0  0  0  0  0  0  0
   20.8803   -7.2148    0.0000 C   0  0  0  0  0  0  0  0  0  0  0  0
   22.0322   -6.5498    0.0000 O   0  0  0  0  0  0  0  0  0  0  0  0
   19.7285   -6.5498    0.0000 O   0  0  0  0  0  0  0  0  0  0  0  0
  2  1  2  0
  3  1  1  0
  4  2  1  0
  5  3  2  0
  6  4  2  0
  6  5  1  0
  3  7  1  0
  7  8  1  0
  7  9  2  0
M  END
>  <Name>  (129) 
BENZOIC

>  <logK_Ce_z=3.0_T=25_I=1.0>  (129) 
2.61

$$$$

     RDKit          2D

  4  3  0  0  0  0  0  0  0  0999 V2000
   15.3511  -13.9043    0.0000 C   0  0  0  0  0  0  0  0  0  0  0  0
   13.7253  -12.9657    0.0000 O   0  0  0  0  0  0  0  0  0  0  0  0
   15.3511  -15.7816    0.0000 O   0  0  0  0  0  0  0  0  0  0  0  0
   16.9769  -12.9657    0.0000 O   0  0  0  0  0  0  0  0  0  0  0  0
  1  2  1  0
  1  3  1  0
  1  4  2  0
M  END
>  <Name>  (130) 
CARBONIC

>  <logK_Ce_z=3.0_T=25_I=1.0>  (130) 
5.33

$$$$

     RDKit          2D

 24 23  0  0  0  0  0  0  0  0999 V2000
   18.9178  -12.8347    0.0000 C   0  0  0  0  0  0  0  0  0  0  0  0
   21.1987  -12.8347    0.0000 C   0  0  0  0  0  0  0  0  0  0  0  0
   14.3562  -16.7853    0.0000 C   0  0  0  0  0  0  0  0  0  0  0  0
   15.4966  -14.8100    0.0000 C   0  0  0  0  0  0  0  0  0  0  0  0
   17.7774  -14.8100    0.0000 O   0  0  0  0  0  0  0  0  0  0  0  0
   12.0753  -16.7853    0.0000 N   0  0  0  0  0  0  0  0  0  0  0  0
   22.3391  -10.8594    0.0000 N   0  0  0  0  0  0  0  0  0  0  0  0
   21.1986   -8.8841    0.0000 C   0  0  0  0  0  0  0  0  0  0  0  0
   18.9178   -8.8842    0.0000 C   0  0  0  0  0  0  0  0  0  0  0  0
   24.6199  -10.8594    0.0000 C   0  0  0  0  0  0  0  0  0  0  0  0
   25.7603   -8.8841    0.0000 C   0  0  0  0  0  0  0  0  0  0  0  0
   10.9349  -18.7605    0.0000 C   0  0  0  0  0  0  0  0  0  0  0  0
   12.0753  -20.7358    0.0000 C   0  0  0  0  0  0  0  0  0  0  0  0
   10.9349  -14.8100    0.0000 C   0  0  0  0  0  0  0  0  0  0  0  0
   12.0753  -12.8347    0.0000 C   0  0  0  0  0  0  0  0  0  0  0  0
   10.9349  -10.8595    0.0000 C   0  0  0  0  0  0  0  0  0  0  0  0
   12.0753   -8.8842    0.0000 O   0  0  0  0  0  0  0  0  0  0  0  0
    8.6540  -10.8595    0.0000 O   0  0  0  0  0  0  0  0  0  0  0  0
   14.3562  -20.7358    0.0000 O   0  0  0  0  0  0  0  0  0  0  0  0
   10.9349  -22.7111    0.0000 O   0  0  0  0  0  0  0  0  0  0  0  0
   17.7774   -6.9089    0.0000 O   0  0  0  0  0  0  0  0  0  0  0  0
   17.7774  -10.8594    0.0000 O   0  0  0  0  0  0  0  0  0  0  0  0
   24.6199   -6.9089    0.0000 O   0  0  0  0  0  0  0  0  0  0  0  0
   28.0412   -8.8841    0.0000 O   0  0  0  0  0  0  0  0  0  0  0  0
  1  2  1  0
  3  4  1  0
  4  5  1  0
  1  5  1  0
  3  6  1  0
  2  7  1  0
  7  8  1  0
  8  9  1  0
  7 10  1  0
 10 11  1  0
  6 12  1  0
 12 13  1  0
  6 14  1  0
 14 15  1  0
 15 16  1  0
 16 17  1  0
 16 18  2  0
 13 19  1  0
 13 20  2  0
  9 21  1  0
  9 22  2  0
 11 23  1  0
 11 24  2  0
M  END
>  <Name>  (131) 
CEOEATA

>  <logK_Ce_z=3.0_T=25_I=1.0>  (131) 
14.3

$$$$

     RDKit          2D

 19 20  0  0  0  0  0  0  0  0999 V2000
   10.9127  -12.1863    0.0000 C   0  0  0  0  0  0  0  0  0  0  0  0
   10.9127  -10.8563    0.0000 C   0  0  0  0  0  0  0  0  0  0  0  0
    9.7609  -12.8513    0.0000 C   0  0  0  0  0  0  0  0  0  0  0  0
    9.7609  -10.1913    0.0000 C   0  0  0  0  0  0  0  0  0  0  0  0
    8.6090  -12.1863    0.0000 C   0  0  0  0  0  0  0  0  0  0  0  0
    8.6090  -10.8563    0.0000 C   0  0  0  0  0  0  0  0  0  0  0  0
   11.4536  -13.4013    0.0000 O   0  0  0  0  0  0  0  0  0  0  0  0
   11.4536   -9.6413    0.0000 O   0  0  0  0  0  0  0  0  0  0  0  0
   12.4420  -14.2913    0.0000 C   0  0  0  0  0  0  0  0  0  0  0  0
   13.7069  -14.7023    0.0000 C   0  0  0  0  0  0  0  0  0  0  0  0
   15.0296  -14.5633    0.0000 O   0  0  0  0  0  0  0  0  0  0  0  0
   16.1814  -13.8983    0.0000 C   0  0  0  0  0  0  0  0  0  0  0  0
   16.9632  -12.8223    0.0000 C   0  0  0  0  0  0  0  0  0  0  0  0
   17.2397  -11.5213    0.0000 O   0  0  0  0  0  0  0  0  0  0  0  0
   16.9632  -10.2204    0.0000 C   0  0  0  0  0  0  0  0  0  0  0  0
   16.1814   -9.1444    0.0000 C   0  0  0  0  0  0  0  0  0  0  0  0
   15.0296   -8.4794    0.0000 O   0  0  0  0  0  0  0  0  0  0  0  0
   13.7069   -8.3404    0.0000 C   0  0  0  0  0  0  0  0  0  0  0  0
   12.4420   -8.7514    0.0000 C   0  0  0  0  0  0  0  0  0  0  0  0
  2  1  1  0
  3  1  1  0
  4  2  1  0
  5  3  1  0
  6  4  1  0
  6  5  1  0
  1  7  1  0
  2  8  1  0
  7  9  1  0
  9 10  1  0
 10 11  1  0
 11 12  1  0
 12 13  1  0
 13 14  1  0
 14 15  1  0
 15 16  1  0
 16 17  1  0
 17 18  1  0
 18 19  1  0
 19  8  1  0
M  END
>  <Name>  (132) 
Cy15C5-1

>  <logK_Ce_z=3.0_T=25_I=1.0>  (132) 
3.27

$$$$

     RDKit          2D

 26 28  0  0  0  0  0  0  0  0999 V2000
   19.3257  -11.2679    0.0000 C   0  0  0  0  0  0  0  0  0  0  0  0
   19.3257   -9.9275    0.0000 C   0  0  0  0  0  0  0  0  0  0  0  0
   18.1702  -11.9265    0.0000 C   0  0  0  0  0  0  0  0  0  0  0  0
   18.1702   -9.2574    0.0000 C   0  0  0  0  0  0  0  0  0  0  0  0
   17.0148  -11.2679    0.0000 C   0  0  0  0  0  0  0  0  0  0  0  0
   17.0148   -9.9275    0.0000 C   0  0  0  0  0  0  0  0  0  0  0  0
   15.8593  -11.9265    0.0000 O   0  0  0  0  0  0  0  0  0  0  0  0
   15.8593   -9.2574    0.0000 O   0  0  0  0  0  0  0  0  0  0  0  0
   15.8593  -13.2668    0.0000 C   0  0  0  0  0  0  0  0  0  0  0  0
   14.7038  -13.9255    0.0000 C   0  0  0  0  0  0  0  0  0  0  0  0
   13.5484  -13.2668    0.0000 O   0  0  0  0  0  0  0  0  0  0  0  0
   12.3929  -13.9255    0.0000 C   0  0  0  0  0  0  0  0  0  0  0  0
   11.2374  -13.2668    0.0000 C   0  0  0  0  0  0  0  0  0  0  0  0
   10.0820  -11.2679    0.0000 C   0  0  0  0  0  0  0  0  0  0  0  0
   10.0820   -9.9275    0.0000 C   0  0  0  0  0  0  0  0  0  0  0  0
    8.9265  -11.9265    0.0000 C   0  0  0  0  0  0  0  0  0  0  0  0
    8.9265   -9.2574    0.0000 C   0  0  0  0  0  0  0  0  0  0  0  0
    7.7710  -11.2679    0.0000 C   0  0  0  0  0  0  0  0  0  0  0  0
    7.7710   -9.9275    0.0000 C   0  0  0  0  0  0  0  0  0  0  0  0
   11.2374  -11.9265    0.0000 O   0  0  0  0  0  0  0  0  0  0  0  0
   11.2374   -9.2574    0.0000 O   0  0  0  0  0  0  0  0  0  0  0  0
   11.2374   -7.9286    0.0000 C   0  0  0  0  0  0  0  0  0  0  0  0
   12.3929   -7.2584    0.0000 C   0  0  0  0  0  0  0  0  0  0  0  0
   13.5484   -7.9286    0.0000 O   0  0  0  0  0  0  0  0  0  0  0  0
   14.7038   -7.2584    0.0000 C   0  0  0  0  0  0  0  0  0  0  0  0
   15.8593   -7.9286    0.0000 C   0  0  0  0  0  0  0  0  0  0  0  0
  2  1  1  0
  3  1  1  0
  4  2  1  0
  5  3  1  0
  6  4  1  0
  6  5  1  0
  5  7  1  0
  6  8  1  0
  7  9  1  0
  9 10  1  0
 10 11  1  0
 11 12  1  0
 12 13  1  0
 15 14  1  0
 16 14  1  0
 17 15  1  0
 18 16  1  0
 19 17  1  0
 19 18  1  0
 14 20  1  0
 15 21  1  0
 13 20  1  0
 21 22  1  0
 22 23  1  0
 23 24  1  0
 24 25  1  0
 25 26  1  0
 26  8  1  0
M  END
>  <Name>  (133) 
Cy2-18C6-3

>  <logK_Ce_z=3.0_T=25_I=1.0>  (133) 
2.8

$$$$

     RDKit          2D

 14 13  0  0  0  0  0  0  0  0999 V2000
   17.7547   -6.8747    0.0000 N   0  0  0  0  0  0  0  0  0  0  0  0
   16.2944   -7.7236    0.0000 C   0  0  0  0  0  0  0  0  0  0  0  0
   14.8226   -6.8860    0.0000 C   0  0  0  0  0  0  0  0  0  0  0  0
   19.2150   -7.7236    0.0000 C   0  0  0  0  0  0  0  0  0  0  0  0
   19.2150   -9.4104    0.0000 C   0  0  0  0  0  0  0  0  0  0  0  0
   14.8226   -5.1876    0.0000 O   0  0  0  0  0  0  0  0  0  0  0  0
   13.3505   -7.7236    0.0000 O   0  0  0  0  0  0  0  0  0  0  0  0
   17.7547  -10.2709    0.0000 O   0  0  0  0  0  0  0  0  0  0  0  0
   20.6868  -10.2596    0.0000 O   0  0  0  0  0  0  0  0  0  0  0  0
   20.6868   -6.8747    0.0000 C   0  0  0  0  0  0  0  0  0  0  0  0
   22.1589   -7.7236    0.0000 O   0  0  0  0  0  0  0  0  0  0  0  0
   20.6868   -5.1763    0.0000 O   0  0  0  0  0  0  0  0  0  0  0  0
   16.2944   -9.4217    0.0000 C   0  0  0  0  0  0  0  0  0  0  0  0
   14.8226  -10.2709    0.0000 C   0  0  0  0  0  0  0  0  0  0  0  0
  1  2  1  0
  2  3  1  0
  1  4  1  0
  4  5  1  0
  3  6  1  0
  3  7  2  0
  5  8  1  0
  5  9  2  0
  4 10  1  0
 10 11  1  0
 10 12  2  0
  2 13  1  0
 13 14  1  0
M  END
>  <Name>  (134) 
CYPAM

>  <logK_Ce_z=3.0_T=25_I=1.0>  (134) 
7.93

$$$$

     RDKit          2D

 21 20  0  0  0  0  0  0  0  0999 V2000
   14.3653   -8.2553    0.0000 C   0  0  0  0  0  0  0  0  0  0  0  0
   15.2439   -9.7879    0.0000 C   0  0  0  0  0  0  0  0  0  0  0  0
   14.3556  -11.3264    0.0000 C   0  0  0  0  0  0  0  0  0  0  0  0
   15.2448  -12.8652    0.0000 O   0  0  0  0  0  0  0  0  0  0  0  0
   12.5891  -11.3318    0.0000 O   0  0  0  0  0  0  0  0  0  0  0  0
   12.5987   -8.2607    0.0000 N   0  0  0  0  0  0  0  0  0  0  0  0
   17.0211   -9.7886    0.0000 N   0  0  0  0  0  0  0  0  0  0  0  0
   17.9030   -8.2611    0.0000 C   0  0  0  0  0  0  0  0  0  0  0  0
   17.0138   -6.7223    0.0000 C   0  0  0  0  0  0  0  0  0  0  0  0
   19.6802   -8.2618    0.0000 C   0  0  0  0  0  0  0  0  0  0  0  0
   11.7095   -6.7220    0.0000 C   0  0  0  0  0  0  0  0  0  0  0  0
   12.5914   -5.1945    0.0000 C   0  0  0  0  0  0  0  0  0  0  0  0
    9.9323   -6.7213    0.0000 C   0  0  0  0  0  0  0  0  0  0  0  0
   15.2472   -6.7278    0.0000 O   0  0  0  0  0  0  0  0  0  0  0  0
   17.9020   -5.1839    0.0000 O   0  0  0  0  0  0  0  0  0  0  0  0
   20.5684   -6.7233    0.0000 O   0  0  0  0  0  0  0  0  0  0  0  0
   20.5691   -9.8004    0.0000 O   0  0  0  0  0  0  0  0  0  0  0  0
   14.3687   -5.1951    0.0000 O   0  0  0  0  0  0  0  0  0  0  0  0
   11.7022   -3.6557    0.0000 O   0  0  0  0  0  0  0  0  0  0  0  0
    9.0441   -8.2597    0.0000 O   0  0  0  0  0  0  0  0  0  0  0  0
    9.0434   -5.1827    0.0000 O   0  0  0  0  0  0  0  0  0  0  0  0
  1  2  1  0
  2  3  1  0
  3  4  1  0
  3  5  2  0
  1  6  1  0
  2  7  1  0
  7  8  1  0
  8  9  1  0
  8 10  1  0
  6 11  1  0
 11 12  1  0
 11 13  1  0
  9 14  1  0
  9 15  2  0
 10 16  1  0
 10 17  2  0
 12 18  1  0
 12 19  2  0
 13 20  1  0
 13 21  2  0
M  END
>  <Name>  (135) 
DAP-N-DMA

>  <logK_Ce_z=3.0_T=25_I=1.0>  (135) 
11.7

$$$$

     RDKit          2D

 23 22  0  0  0  0  0  0  0  0999 V2000
   14.7287  -11.5075    0.0000 C   0  0  0  0  0  0  0  0  0  0  0  0
   16.0685  -12.2811    0.0000 C   0  0  0  0  0  0  0  0  0  0  0  0
   17.4726  -11.6281    0.0000 C   0  0  0  0  0  0  0  0  0  0  0  0
   18.7251  -12.5809    0.0000 O   0  0  0  0  0  0  0  0  0  0  0  0
   17.9607  -10.1678    0.0000 O   0  0  0  0  0  0  0  0  0  0  0  0
   16.0355  -13.8412    0.0000 N   0  0  0  0  0  0  0  0  0  0  0  0
   14.6516   -9.9699    0.0000 N   0  0  0  0  0  0  0  0  0  0  0  0
   14.7354  -14.6491    0.0000 C   0  0  0  0  0  0  0  0  0  0  0  0
   13.3144  -14.1170    0.0000 C   0  0  0  0  0  0  0  0  0  0  0  0
   17.3608  -14.6399    0.0000 C   0  0  0  0  0  0  0  0  0  0  0  0
   17.4052  -16.1753    0.0000 C   0  0  0  0  0  0  0  0  0  0  0  0
   15.9170   -9.1150    0.0000 C   0  0  0  0  0  0  0  0  0  0  0  0
   16.0115   -7.5967    0.0000 C   0  0  0  0  0  0  0  0  0  0  0  0
   13.2932   -9.2881    0.0000 C   0  0  0  0  0  0  0  0  0  0  0  0
   11.8861   -9.8238    0.0000 C   0  0  0  0  0  0  0  0  0  0  0  0
   17.4058   -6.9134    0.0000 O   0  0  0  0  0  0  0  0  0  0  0  0
   14.7562   -6.6883    0.0000 O   0  0  0  0  0  0  0  0  0  0  0  0
   12.1034  -15.1273    0.0000 O   0  0  0  0  0  0  0  0  0  0  0  0
   12.8510  -12.6715    0.0000 O   0  0  0  0  0  0  0  0  0  0  0  0
   16.1254  -17.0433    0.0000 O   0  0  0  0  0  0  0  0  0  0  0  0
   18.7843  -16.8909    0.0000 O   0  0  0  0  0  0  0  0  0  0  0  0
   10.8442   -8.6125    0.0000 O   0  0  0  0  0  0  0  0  0  0  0  0
   11.1184  -11.1474    0.0000 O   0  0  0  0  0  0  0  0  0  0  0  0
  1  2  1  0
  2  3  1  0
  3  4  1  0
  3  5  2  0
  2  6  1  0
  1  7  1  0
  6  8  1  0
  8  9  1  0
  6 10  1  0
 10 11  1  0
  7 12  1  0
 12 13  1  0
  7 14  1  0
 14 15  1  0
 13 16  1  0
 13 17  2  0
  9 18  1  0
  9 19  2  0
 11 20  1  0
 11 21  2  0
 15 22  1  0
 15 23  2  0
M  END
>  <Name>  (136) 
DAPOTA

>  <logK_Ce_z=3.0_T=25_I=1.0>  (136) 
14.7

$$$$

     RDKit          2D

 22 22  0  0  0  0  0  0  0  0999 V2000
   23.1499  -11.6027    0.0000 C   0  0  0  0  0  0  0  0  0  0  0  0
   23.8145  -12.7537    0.0000 C   0  0  0  0  0  0  0  0  0  0  0  0
   21.8323  -11.6063    0.0000 C   0  0  0  0  0  0  0  0  0  0  0  0
   23.1570  -13.9007    0.0000 C   0  0  0  0  0  0  0  0  0  0  0  0
   21.1669  -12.7578    0.0000 C   0  0  0  0  0  0  0  0  0  0  0  0
   21.8315  -13.9089    0.0000 C   0  0  0  0  0  0  0  0  0  0  0  0
   23.8074  -10.4557    0.0000 N   0  0  0  0  0  0  0  0  0  0  0  0
   21.1722  -10.4629    0.0000 N   0  0  0  0  0  0  0  0  0  0  0  0
   25.1374  -10.4552    0.0000 C   0  0  0  0  0  0  0  0  0  0  0  0
   25.8020  -11.6063    0.0000 C   0  0  0  0  0  0  0  0  0  0  0  0
   25.8028   -9.3036    0.0000 C   0  0  0  0  0  0  0  0  0  0  0  0
   19.8422  -10.4634    0.0000 C   0  0  0  0  0  0  0  0  0  0  0  0
   19.1768  -11.6150    0.0000 C   0  0  0  0  0  0  0  0  0  0  0  0
   19.1777   -9.3124    0.0000 C   0  0  0  0  0  0  0  0  0  0  0  0
   25.1365  -12.7578    0.0000 O   0  0  0  0  0  0  0  0  0  0  0  0
   27.1320  -11.6058    0.0000 O   0  0  0  0  0  0  0  0  0  0  0  0
   25.1427   -8.1603    0.0000 O   0  0  0  0  0  0  0  0  0  0  0  0
   27.1326   -9.3033    0.0000 O   0  0  0  0  0  0  0  0  0  0  0  0
   19.8369  -12.7583    0.0000 O   0  0  0  0  0  0  0  0  0  0  0  0
   17.8471  -11.6154    0.0000 O   0  0  0  0  0  0  0  0  0  0  0  0
   19.8431   -8.1608    0.0000 O   0  0  0  0  0  0  0  0  0  0  0  0
   17.8477   -9.3129    0.0000 O   0  0  0  0  0  0  0  0  0  0  0  0
  2  1  1  0
  3  1  1  0
  4  2  1  0
  5  3  1  0
  6  4  1  0
  6  5  1  0
  1  7  1  0
  3  8  1  0
  7  9  1  0
  9 10  1  0
  9 11  1  0
  8 12  1  0
 12 13  1  0
 12 14  1  0
 10 15  1  0
 10 16  2  0
 11 17  1  0
 11 18  2  0
 13 19  1  0
 13 20  2  0
 14 21  1  0
 14 22  2  0
M  END
>  <Name>  (137) 
DICYHEX-DIMAL

>  <logK_Ce_z=3.0_T=25_I=1.0>  (137) 
14.2

$$$$

     RDKit          2D

 24 24  0  0  0  0  0  0  0  0999 V2000
   18.6999  -13.5532    0.0000 C   0  0  0  0  0  0  0  0  0  0  0  0
   19.3643  -14.7039    0.0000 C   0  0  0  0  0  0  0  0  0  0  0  0
   17.3863  -13.5449    0.0000 C   0  0  0  0  0  0  0  0  0  0  0  0
   18.7149  -15.8459    0.0000 C   0  0  0  0  0  0  0  0  0  0  0  0
   16.7211  -14.6957    0.0000 C   0  0  0  0  0  0  0  0  0  0  0  0
   17.3854  -15.8464    0.0000 C   0  0  0  0  0  0  0  0  0  0  0  0
   19.3652  -12.4024    0.0000 N   0  0  0  0  0  0  0  0  0  0  0  0
   16.7265  -12.4021    0.0000 N   0  0  0  0  0  0  0  0  0  0  0  0
   20.6898  -12.3943    0.0000 C   0  0  0  0  0  0  0  0  0  0  0  0
   21.3594  -11.2511    0.0000 C   0  0  0  0  0  0  0  0  0  0  0  0
   15.3973  -12.4028    0.0000 C   0  0  0  0  0  0  0  0  0  0  0  0
   14.7330  -11.2521    0.0000 C   0  0  0  0  0  0  0  0  0  0  0  0
   20.6952  -10.1007    0.0000 O   0  0  0  0  0  0  0  0  0  0  0  0
   22.6840  -11.2430    0.0000 O   0  0  0  0  0  0  0  0  0  0  0  0
   15.3980  -10.1010    0.0000 O   0  0  0  0  0  0  0  0  0  0  0  0
   13.4038  -11.2524    0.0000 O   0  0  0  0  0  0  0  0  0  0  0  0
   14.7323  -13.5534    0.0000 C   0  0  0  0  0  0  0  0  0  0  0  0
   13.4031  -13.5541    0.0000 C   0  0  0  0  0  0  0  0  0  0  0  0
   21.3539  -13.5447    0.0000 C   0  0  0  0  0  0  0  0  0  0  0  0
   22.6833  -13.5443    0.0000 C   0  0  0  0  0  0  0  0  0  0  0  0
   12.7387  -12.4035    0.0000 O   0  0  0  0  0  0  0  0  0  0  0  0
   12.7381  -14.7048    0.0000 O   0  0  0  0  0  0  0  0  0  0  0  0
   23.3481  -12.3933    0.0000 O   0  0  0  0  0  0  0  0  0  0  0  0
   23.3477  -14.6949    0.0000 O   0  0  0  0  0  0  0  0  0  0  0  0
  2  1  1  0
  3  1  1  0
  4  2  1  0
  5  3  1  0
  6  4  1  0
  6  5  1  0
  1  7  1  0
  3  8  1  0
  7  9  1  0
  9 10  1  0
  8 11  1  0
 11 12  1  0
 10 13  1  0
 10 14  2  0
 12 15  1  0
 12 16  2  0
 11 17  1  0
 17 18  1  0
  9 19  1  0
 19 20  1  0
 18 21  1  0
 18 22  2  0
 20 23  1  0
 20 24  2  0
M  END
>  <Name>  (138) 
DICYHEX-DISUC

>  <logK_Ce_z=3.0_T=25_I=1.0>  (138) 
12.9

$$$$

     RDKit          2D

 28 27  0  0  0  0  0  0  0  0999 V2000
   14.3436  -11.1288    0.0000 C   0  0  0  0  0  0  0  0  0  0  0  0
   15.7657  -11.1286    0.0000 C   0  0  0  0  0  0  0  0  0  0  0  0
   13.6160   -9.8876    0.0000 N   0  0  0  0  0  0  0  0  0  0  0  0
   16.4932  -12.3699    0.0000 N   0  0  0  0  0  0  0  0  0  0  0  0
   15.7715  -13.6200    0.0000 C   0  0  0  0  0  0  0  0  0  0  0  0
   14.3274  -13.6197    0.0000 C   0  0  0  0  0  0  0  0  0  0  0  0
   14.3378   -8.6375    0.0000 C   0  0  0  0  0  0  0  0  0  0  0  0
   15.7818   -8.6378    0.0000 C   0  0  0  0  0  0  0  0  0  0  0  0
   16.4874   -9.8785    0.0000 O   0  0  0  0  0  0  0  0  0  0  0  0
   16.5036   -7.3877    0.0000 O   0  0  0  0  0  0  0  0  0  0  0  0
   13.6219  -12.3789    0.0000 O   0  0  0  0  0  0  0  0  0  0  0  0
   13.6057  -14.8698    0.0000 O   0  0  0  0  0  0  0  0  0  0  0  0
   12.1768   -9.8778    0.0000 C   0  0  0  0  0  0  0  0  0  0  0  0
   11.4492   -8.6365    0.0000 C   0  0  0  0  0  0  0  0  0  0  0  0
   17.9325  -12.3797    0.0000 C   0  0  0  0  0  0  0  0  0  0  0  0
   18.6601  -13.6210    0.0000 C   0  0  0  0  0  0  0  0  0  0  0  0
   12.1709   -7.3864    0.0000 O   0  0  0  0  0  0  0  0  0  0  0  0
   17.9384  -14.8711    0.0000 O   0  0  0  0  0  0  0  0  0  0  0  0
   10.0099   -8.6268    0.0000 N   0  0  0  0  0  0  0  0  0  0  0  0
   20.0994  -13.6307    0.0000 N   0  0  0  0  0  0  0  0  0  0  0  0
    9.2823   -7.3855    0.0000 C   0  0  0  0  0  0  0  0  0  0  0  0
    7.8430   -7.3757    0.0000 C   0  0  0  0  0  0  0  0  0  0  0  0
   20.8270  -14.8720    0.0000 C   0  0  0  0  0  0  0  0  0  0  0  0
   22.2662  -14.8817    0.0000 C   0  0  0  0  0  0  0  0  0  0  0  0
    7.1213   -8.6258    0.0000 O   0  0  0  0  0  0  0  0  0  0  0  0
    7.1149   -6.1341    0.0000 O   0  0  0  0  0  0  0  0  0  0  0  0
   22.9880  -13.6317    0.0000 O   0  0  0  0  0  0  0  0  0  0  0  0
   22.9943  -16.1233    0.0000 O   0  0  0  0  0  0  0  0  0  0  0  0
  1  2  1  0
  1  3  1  0
  2  4  1  0
  4  5  1  0
  5  6  1  0
  3  7  1  0
  7  8  1  0
  8  9  1  0
  8 10  2  0
  6 11  1  0
  6 12  2  0
  3 13  1  0
 13 14  1  0
  4 15  1  0
 15 16  1  0
 14 17  2  0
 16 18  2  0
 14 19  1  0
 16 20  1  0
 19 21  1  0
 21 22  1  0
 20 23  1  0
 23 24  1  0
 22 25  1  0
 22 26  2  0
 24 27  2  0
 24 28  1  0
M  END
>  <Name>  (139) 
EDDAG-DA

>  <logK_Ce_z=3.0_T=25_I=1.0>  (139) 
10.7

$$$$

     RDKit          2D

 22 21  0  0  0  0  0  0  0  0999 V2000
   10.4144  -16.8158    0.0000 C   0  0  0  0  0  0  0  0  0  0  0  0
   12.5557  -16.8158    0.0000 C   0  0  0  0  0  0  0  0  0  0  0  0
    9.3442  -14.9745    0.0000 N   0  0  0  0  0  0  0  0  0  0  0  0
   13.6116  -18.6713    0.0000 N   0  0  0  0  0  0  0  0  0  0  0  0
    7.2029  -14.9745    0.0000 C   0  0  0  0  0  0  0  0  0  0  0  0
    6.1322  -16.8158    0.0000 C   0  0  0  0  0  0  0  0  0  0  0  0
   15.7530  -18.6713    0.0000 C   0  0  0  0  0  0  0  0  0  0  0  0
   16.8231  -20.5268    0.0000 C   0  0  0  0  0  0  0  0  0  0  0  0
    3.9914  -16.8158    0.0000 O   0  0  0  0  0  0  0  0  0  0  0  0
    7.2029  -18.6713    0.0000 O   0  0  0  0  0  0  0  0  0  0  0  0
   15.7530  -22.3829    0.0000 O   0  0  0  0  0  0  0  0  0  0  0  0
   18.9645  -20.5268    0.0000 O   0  0  0  0  0  0  0  0  0  0  0  0
   16.8231  -16.8158    0.0000 C   0  0  0  0  0  0  0  0  0  0  0  0
   18.9645  -16.8158    0.0000 C   0  0  0  0  0  0  0  0  0  0  0  0
   20.0351  -14.9745    0.0000 C   0  0  0  0  0  0  0  0  0  0  0  0
    6.1322  -13.1332    0.0000 C   0  0  0  0  0  0  0  0  0  0  0  0
    7.2029  -11.2777    0.0000 C   0  0  0  0  0  0  0  0  0  0  0  0
    6.1322   -9.4222    0.0000 C   0  0  0  0  0  0  0  0  0  0  0  0
   18.9645  -13.1332    0.0000 O   0  0  0  0  0  0  0  0  0  0  0  0
   22.1759  -14.9745    0.0000 O   0  0  0  0  0  0  0  0  0  0  0  0
    3.9914   -9.4222    0.0000 O   0  0  0  0  0  0  0  0  0  0  0  0
    7.2029   -7.5661    0.0000 O   0  0  0  0  0  0  0  0  0  0  0  0
  1  2  1  0
  1  3  1  0
  2  4  1  0
  3  5  1  0
  5  6  1  0
  4  7  1  0
  7  8  1  0
  6  9  1  0
  6 10  2  0
  8 11  1  0
  8 12  2  0
  7 13  1  0
 13 14  1  0
 14 15  1  0
  5 16  1  0
 16 17  1  0
 17 18  1  0
 15 19  1  0
 15 20  2  0
 18 21  1  0
 18 22  2  0
M  END
>  <Name>  (140) 
EDDG

>  <logK_Ce_z=3.0_T=25_I=1.0>  (140) 
7.43

$$$$

     RDKit          2D

  9  8  0  0  0  0  0  0  0  0999 V2000
   11.8918   -6.4377    0.0000 C   0  0  0  0  0  0  0  0  0  0  0  0
   13.0436   -7.1027    0.0000 C   0  0  0  0  0  0  0  0  0  0  0  0
   14.1954   -6.4377    0.0000 C   0  0  0  0  0  0  0  0  0  0  0  0
   15.3472   -7.1027    0.0000 C   0  0  0  0  0  0  0  0  0  0  0  0
   10.7400   -7.1027    0.0000 C   0  0  0  0  0  0  0  0  0  0  0  0
   16.4991   -6.4377    0.0000 O   0  0  0  0  0  0  0  0  0  0  0  0
   15.3472   -8.4327    0.0000 O   0  0  0  0  0  0  0  0  0  0  0  0
    9.5882   -6.4377    0.0000 O   0  0  0  0  0  0  0  0  0  0  0  0
   10.7400   -8.4327    0.0000 O   0  0  0  0  0  0  0  0  0  0  0  0
  2  1  1  0
  3  2  1  0
  3  4  1  0
  1  5  1  0
  4  6  1  0
  4  7  2  0
  5  8  1  0
  5  9  2  0
M  END
>  <Name>  (141) 
GLUTARIC

>  <logK_Ce_z=3.0_T=25_I=1.0>  (141) 
4.55

$$$$

     RDKit          2D

  5  4  0  0  0  0  0  0  0  0999 V2000
   13.7864  -10.0836    0.0000 C   0  0  0  0  0  0  0  0  0  0  0  0
   15.4392   -9.1293    0.0000 C   0  0  0  0  0  0  0  0  0  0  0  0
   13.7864  -11.9921    0.0000 N   0  0  0  0  0  0  0  0  0  0  0  0
   15.4392   -7.2208    0.0000 O   0  0  0  0  0  0  0  0  0  0  0  0
   17.0921  -10.0836    0.0000 O   0  0  0  0  0  0  0  0  0  0  0  0
  1  2  1  0
  1  3  1  0
  2  4  1  0
  2  5  2  0
M  END
>  <Name>  (142) 
GLYCINE

>  <logK_Ce_z=3.0_T=25_I=1.0>  (142) 
5.38

$$$$

     RDKit          2D

 26 25  0  0  0  0  0  0  0  0999 V2000
   19.7441   -9.9347    0.0000 C   0  0  0  0  0  0  0  0  0  0  0  0
   20.8808   -9.2687    0.0000 C   0  0  0  0  0  0  0  0  0  0  0  0
   18.5897   -9.2687    0.0000 N   0  0  0  0  0  0  0  0  0  0  0  0
   22.0352   -9.9347    0.0000 N   0  0  0  0  0  0  0  0  0  0  0  0
   22.0352  -11.2575    0.0000 C   0  0  0  0  0  0  0  0  0  0  0  0
   23.1896  -11.9235    0.0000 C   0  0  0  0  0  0  0  0  0  0  0  0
   23.1896   -9.2687    0.0000 C   0  0  0  0  0  0  0  0  0  0  0  0
   23.1896   -7.9365    0.0000 C   0  0  0  0  0  0  0  0  0  0  0  0
   18.5897   -7.9365    0.0000 C   0  0  0  0  0  0  0  0  0  0  0  0
   17.4353   -7.2705    0.0000 C   0  0  0  0  0  0  0  0  0  0  0  0
   17.4353   -9.9347    0.0000 C   0  0  0  0  0  0  0  0  0  0  0  0
   17.4353  -11.2575    0.0000 C   0  0  0  0  0  0  0  0  0  0  0  0
   16.2808   -7.9365    0.0000 O   0  0  0  0  0  0  0  0  0  0  0  0
   17.4353   -5.9386    0.0000 O   0  0  0  0  0  0  0  0  0  0  0  0
   24.3440  -11.2575    0.0000 O   0  0  0  0  0  0  0  0  0  0  0  0
   23.1896  -13.2557    0.0000 O   0  0  0  0  0  0  0  0  0  0  0  0
   22.0352   -7.2705    0.0000 O   0  0  0  0  0  0  0  0  0  0  0  0
   24.3440   -7.2705    0.0000 O   0  0  0  0  0  0  0  0  0  0  0  0
   18.5897  -11.9235    0.0000 O   0  0  0  0  0  0  0  0  0  0  0  0
   16.2808  -11.9235    0.0000 O   0  0  0  0  0  0  0  0  0  0  0  0
   19.7441  -11.2575    0.0000 C   0  0  0  0  0  0  0  0  0  0  0  0
   20.8808  -11.9235    0.0000 C   0  0  0  0  0  0  0  0  0  0  0  0
   20.8808  -13.2557    0.0000 C   0  0  0  0  0  0  0  0  0  0  0  0
   19.7441  -13.9217    0.0000 C   0  0  0  0  0  0  0  0  0  0  0  0
   19.7441  -15.2536    0.0000 C   0  0  0  0  0  0  0  0  0  0  0  0
   18.5897  -15.9195    0.0000 C   0  0  0  0  0  0  0  0  0  0  0  0
  1  2  1  0
  1  3  1  0
  2  4  1  0
  4  5  1  0
  5  6  1  0
  4  7  1  0
  7  8  1  0
  3  9  1  0
  9 10  1  0
  3 11  1  0
 11 12  1  0
 10 13  1  0
 10 14  2  0
  6 15  1  0
  6 16  2  0
  8 17  1  0
  8 18  2  0
 12 19  1  0
 12 20  2  0
  1 21  1  0
 21 22  1  0
 22 23  1  0
 23 24  1  0
 24 25  1  0
 25 26  1  0
M  END
>  <Name>  (143) 
H-AEDNTA

>  <logK_Ce_z=3.0_T=25_I=1.0>  (143) 
17.1

$$$$

     RDKit          2D

 32 33  0  0  0  0  0  0  0  0999 V2000
   19.5987  -16.0407    0.0000 C   0  0  0  0  0  0  0  0  0  0  0  0
   19.5981  -17.7578    0.0000 C   0  0  0  0  0  0  0  0  0  0  0  0
   19.5990  -12.5436    0.0000 C   0  0  0  0  0  0  0  0  0  0  0  0
   18.0845  -13.4180    0.0000 C   0  0  0  0  0  0  0  0  0  0  0  0
   22.6165  -16.0151    0.0000 C   0  0  0  0  0  0  0  0  0  0  0  0
   22.6152  -17.7678    0.0000 C   0  0  0  0  0  0  0  0  0  0  0  0
   22.6290  -12.5392    0.0000 C   0  0  0  0  0  0  0  0  0  0  0  0
   24.1316  -13.4236    0.0000 C   0  0  0  0  0  0  0  0  0  0  0  0
   24.1310  -15.1408    0.0000 N   0  0  0  0  0  0  0  0  0  0  0  0
   21.1145  -13.4136    0.0000 N   0  0  0  0  0  0  0  0  0  0  0  0
   18.0961  -15.1563    0.0000 N   0  0  0  0  0  0  0  0  0  0  0  0
   21.1007  -18.6422    0.0000 N   0  0  0  0  0  0  0  0  0  0  0  0
   21.1193  -11.6721    0.0000 C   0  0  0  0  0  0  0  0  0  0  0  0
   16.3545  -15.1571    0.0000 C   0  0  0  0  0  0  0  0  0  0  0  0
   21.0963  -20.3838    0.0000 C   0  0  0  0  0  0  0  0  0  0  0  0
   22.6300  -10.8055    0.0000 O   0  0  0  0  0  0  0  0  0  0  0  0
   19.6136  -10.7971    0.0000 O   0  0  0  0  0  0  0  0  0  0  0  0
   15.4831  -13.6493    0.0000 O   0  0  0  0  0  0  0  0  0  0  0  0
   15.4844  -16.6657    0.0000 O   0  0  0  0  0  0  0  0  0  0  0  0
   22.6023  -21.2584    0.0000 O   0  0  0  0  0  0  0  0  0  0  0  0
   19.5859  -21.2507    0.0000 O   0  0  0  0  0  0  0  0  0  0  0  0
   25.8725  -15.1326    0.0000 P   0  0  0  0  0  0  0  0  0  0  0  0
   25.8806  -16.8741    0.0000 O   0  0  0  0  0  0  0  0  0  0  0  0
   25.8643  -13.3911    0.0000 O   0  0  0  0  0  0  0  0  0  0  0  0
   27.6140  -15.1244    0.0000 C   0  0  0  0  0  0  0  0  0  0  0  0
   28.4777  -13.6122    0.0000 C   0  0  0  0  0  0  0  0  0  0  0  0
   27.5999  -12.1080    0.0000 C   0  0  0  0  0  0  0  0  0  0  0  0
   30.2193  -13.6040    0.0000 C   0  0  0  0  0  0  0  0  0  0  0  0
   28.4636  -10.5957    0.0000 C   0  0  0  0  0  0  0  0  0  0  0  0
   31.0829  -12.0917    0.0000 C   0  0  0  0  0  0  0  0  0  0  0  0
   30.2051  -10.5876    0.0000 C   0  0  0  0  0  0  0  0  0  0  0  0
   31.0688   -9.0753    0.0000 N   0  0  0  0  0  0  0  0  0  0  0  0
  1  2  1  0
  3  4  1  0
  5  6  1  0
  7  8  1  0
  8  9  1  0
  5  9  1  0
  7 10  1  0
  3 10  1  0
  4 11  1  0
  1 11  1  0
  2 12  1  0
  6 12  1  0
 10 13  1  0
 11 14  1  0
 12 15  1  0
 13 16  1  0
 13 17  2  0
 14 18  1  0
 14 19  2  0
 15 20  1  0
 15 21  2  0
  9 22  1  0
 22 23  1  0
 22 24  2  0
 22 25  1  0
 27 26  2  0
 28 26  1  0
 29 27  1  0
 30 28  2  0
 31 29  2  0
 31 30  1  0
 25 26  1  0
 31 32  1  0
M  END
>  <Name>  (144) 
H4DO3APABN

>  <logK_Ce_z=3.0_T=25_I=1.0>  (144) 
23.4

$$$$

     RDKit          2D

 25 25  0  0  0  0  0  0  0  0999 V2000
   17.1768  -13.8774    0.0000 C   0  0  0  0  0  0  0  0  0  0  0  0
   17.1762  -15.5946    0.0000 C   0  0  0  0  0  0  0  0  0  0  0  0
   17.1771  -10.3804    0.0000 C   0  0  0  0  0  0  0  0  0  0  0  0
   15.6626  -11.2548    0.0000 C   0  0  0  0  0  0  0  0  0  0  0  0
   20.1946  -13.8519    0.0000 C   0  0  0  0  0  0  0  0  0  0  0  0
   20.1933  -15.6046    0.0000 C   0  0  0  0  0  0  0  0  0  0  0  0
   20.2071  -10.3760    0.0000 C   0  0  0  0  0  0  0  0  0  0  0  0
   21.7098  -11.2604    0.0000 C   0  0  0  0  0  0  0  0  0  0  0  0
   21.7091  -12.9775    0.0000 N   0  0  0  0  0  0  0  0  0  0  0  0
   18.6926  -11.2504    0.0000 N   0  0  0  0  0  0  0  0  0  0  0  0
   15.6742  -12.9931    0.0000 N   0  0  0  0  0  0  0  0  0  0  0  0
   18.6788  -16.4790    0.0000 N   0  0  0  0  0  0  0  0  0  0  0  0
   18.6975   -9.5088    0.0000 C   0  0  0  0  0  0  0  0  0  0  0  0
   13.9326  -12.9939    0.0000 C   0  0  0  0  0  0  0  0  0  0  0  0
   18.6744  -18.2206    0.0000 C   0  0  0  0  0  0  0  0  0  0  0  0
   20.2082   -8.6423    0.0000 O   0  0  0  0  0  0  0  0  0  0  0  0
   17.1917   -8.6338    0.0000 O   0  0  0  0  0  0  0  0  0  0  0  0
   13.0611  -11.4860    0.0000 O   0  0  0  0  0  0  0  0  0  0  0  0
   13.0626  -14.5025    0.0000 O   0  0  0  0  0  0  0  0  0  0  0  0
   20.1805  -19.0951    0.0000 O   0  0  0  0  0  0  0  0  0  0  0  0
   17.1640  -19.0875    0.0000 O   0  0  0  0  0  0  0  0  0  0  0  0
   23.4506  -12.9694    0.0000 P   0  0  0  0  0  0  0  0  0  0  0  0
   23.4588  -14.7109    0.0000 O   0  0  0  0  0  0  0  0  0  0  0  0
   23.4425  -11.2279    0.0000 O   0  0  0  0  0  0  0  0  0  0  0  0
   25.1922  -12.9613    0.0000 O   0  0  0  0  0  0  0  0  0  0  0  0
  1  2  1  0
  3  4  1  0
  5  6  1  0
  7  8  1  0
  8  9  1  0
  5  9  1  0
  7 10  1  0
  3 10  1  0
  4 11  1  0
  1 11  1  0
  2 12  1  0
  6 12  1  0
 10 13  1  0
 11 14  1  0
 12 15  1  0
 13 16  1  0
 13 17  2  0
 14 18  1  0
 14 19  2  0
 15 20  1  0
 15 21  2  0
  9 22  1  0
 22 23  1  0
 22 24  2  0
 22 25  1  0
M  END
>  <Name>  (145) 
H5DO3AP

>  <logK_Ce_z=3.0_T=25_I=1.0>  (145) 
26.5

$$$$

     RDKit          2D

 29 29  0  0  0  0  0  0  0  0999 V2000
   18.7672  -13.1243    0.0000 C   0  0  0  0  0  0  0  0  0  0  0  0
   18.7665  -14.8415    0.0000 C   0  0  0  0  0  0  0  0  0  0  0  0
   18.7675   -9.6272    0.0000 C   0  0  0  0  0  0  0  0  0  0  0  0
   17.2530  -10.5016    0.0000 C   0  0  0  0  0  0  0  0  0  0  0  0
   21.7849  -13.0988    0.0000 C   0  0  0  0  0  0  0  0  0  0  0  0
   21.7837  -14.8515    0.0000 C   0  0  0  0  0  0  0  0  0  0  0  0
   21.7974   -9.6228    0.0000 C   0  0  0  0  0  0  0  0  0  0  0  0
   23.3001  -10.5072    0.0000 C   0  0  0  0  0  0  0  0  0  0  0  0
   23.2994  -12.2244    0.0000 N   0  0  0  0  0  0  0  0  0  0  0  0
   20.2829  -10.4972    0.0000 N   0  0  0  0  0  0  0  0  0  0  0  0
   17.2645  -12.2399    0.0000 N   0  0  0  0  0  0  0  0  0  0  0  0
   20.2692  -15.7259    0.0000 N   0  0  0  0  0  0  0  0  0  0  0  0
   20.2878   -8.7557    0.0000 C   0  0  0  0  0  0  0  0  0  0  0  0
   15.5229  -12.2407    0.0000 C   0  0  0  0  0  0  0  0  0  0  0  0
   20.2648  -17.4674    0.0000 C   0  0  0  0  0  0  0  0  0  0  0  0
   21.7985   -7.8891    0.0000 O   0  0  0  0  0  0  0  0  0  0  0  0
   18.7820   -7.8806    0.0000 O   0  0  0  0  0  0  0  0  0  0  0  0
   14.6514  -10.7329    0.0000 O   0  0  0  0  0  0  0  0  0  0  0  0
   14.6528  -13.7494    0.0000 O   0  0  0  0  0  0  0  0  0  0  0  0
   21.7708  -18.3420    0.0000 O   0  0  0  0  0  0  0  0  0  0  0  0
   18.7543  -18.3344    0.0000 O   0  0  0  0  0  0  0  0  0  0  0  0
   25.0410  -12.2162    0.0000 P   0  0  0  0  0  0  0  0  0  0  0  0
   25.0491  -13.9577    0.0000 O   0  0  0  0  0  0  0  0  0  0  0  0
   25.0328  -10.4746    0.0000 O   0  0  0  0  0  0  0  0  0  0  0  0
   26.7825  -12.2080    0.0000 C   0  0  0  0  0  0  0  0  0  0  0  0
   27.6462  -10.6957    0.0000 C   0  0  0  0  0  0  0  0  0  0  0  0
   29.3878  -10.6876    0.0000 C   0  0  0  0  0  0  0  0  0  0  0  0
   30.2515   -9.1753    0.0000 O   0  0  0  0  0  0  0  0  0  0  0  0
   30.2656  -12.1917    0.0000 O   0  0  0  0  0  0  0  0  0  0  0  0
  1  2  1  0
  3  4  1  0
  5  6  1  0
  7  8  1  0
  8  9  1  0
  5  9  1  0
  7 10  1  0
  3 10  1  0
  4 11  1  0
  1 11  1  0
  2 12  1  0
  6 12  1  0
 10 13  1  0
 11 14  1  0
 12 15  1  0
 13 16  1  0
 13 17  2  0
 14 18  1  0
 14 19  2  0
 15 20  1  0
 15 21  2  0
  9 22  1  0
 22 23  1  0
 22 24  2  0
 22 25  1  0
 25 26  1  0
 26 27  1  0
 27 28  1  0
 27 29  2  0
M  END
>  <Name>  (146) 
H5DO3APPRA

>  <logK_Ce_z=3.0_T=25_I=1.0>  (146) 
24.4

$$$$

     RDKit          2D

 22 22  0  0  0  0  0  0  0  0999 V2000
    9.5951  -14.3194    0.0000 C   0  0  0  0  0  0  0  0  0  0  0  0
   11.2972  -14.7755    0.0000 C   0  0  0  0  0  0  0  0  0  0  0  0
    8.3586   -9.6857    0.0000 C   0  0  0  0  0  0  0  0  0  0  0  0
    7.9025  -11.3878    0.0000 C   0  0  0  0  0  0  0  0  0  0  0  0
   14.6849  -11.3808    0.0000 C   0  0  0  0  0  0  0  0  0  0  0  0
   14.2288  -13.0829    0.0000 C   0  0  0  0  0  0  0  0  0  0  0  0
   11.2902   -7.9931    0.0000 C   0  0  0  0  0  0  0  0  0  0  0  0
   12.9923   -8.4492    0.0000 C   0  0  0  0  0  0  0  0  0  0  0  0
   14.2294   -9.6754    0.0000 N   0  0  0  0  0  0  0  0  0  0  0  0
    9.6057   -8.4365    0.0000 N   0  0  0  0  0  0  0  0  0  0  0  0
    8.3459  -13.0723    0.0000 O   0  0  0  0  0  0  0  0  0  0  0  0
   13.0026  -14.3201    0.0000 O   0  0  0  0  0  0  0  0  0  0  0  0
    6.1382  -11.3884    0.0000 O   0  0  0  0  0  0  0  0  0  0  0  0
   15.7565   -8.7937    0.0000 C   0  0  0  0  0  0  0  0  0  0  0  0
   17.2842   -9.6764    0.0000 C   0  0  0  0  0  0  0  0  0  0  0  0
    8.7241   -6.9094    0.0000 C   0  0  0  0  0  0  0  0  0  0  0  0
    9.5964   -5.3877    0.0000 C   0  0  0  0  0  0  0  0  0  0  0  0
   17.2848  -11.4408    0.0000 O   0  0  0  0  0  0  0  0  0  0  0  0
   18.8113   -8.7948    0.0000 O   0  0  0  0  0  0  0  0  0  0  0  0
   11.3502   -5.3932    0.0000 O   0  0  0  0  0  0  0  0  0  0  0  0
    8.7148   -3.8606    0.0000 O   0  0  0  0  0  0  0  0  0  0  0  0
   15.7565  -13.9656    0.0000 O   0  0  0  0  0  0  0  0  0  0  0  0
  1  2  1  0
  3  4  1  0
  5  6  1  0
  7  8  1  0
  8  9  1  0
  5  9  1  0
  7 10  1  0
  3 10  1  0
  4 11  1  0
  1 11  1  0
  6 12  1  0
  2 12  1  0
  4 13  2  0
  9 14  1  0
 14 15  1  0
 10 16  1  0
 16 17  1  0
 15 18  1  0
 15 19  2  0
 17 20  1  0
 17 21  2  0
  6 22  2  0
M  END
>  <Name>  (147) 
K2-A2-12C4-1

>  <logK_Ce_z=3.0_T=25_I=1.0>  (147) 
5.55

$$$$

     RDKit          2D

 25 25  0  0  0  0  0  0  0  0999 V2000
    7.0914   -9.6842    0.0000 C   0  0  0  0  0  0  0  0  0  0  0  0
    8.5103   -8.1115    0.0000 C   0  0  0  0  0  0  0  0  0  0  0  0
   12.5655   -7.2452    0.0000 C   0  0  0  0  0  0  0  0  0  0  0  0
   14.5250   -8.1133    0.0000 C   0  0  0  0  0  0  0  0  0  0  0  0
   16.3617  -13.8205    0.0000 C   0  0  0  0  0  0  0  0  0  0  0  0
   16.6041  -11.7144    0.0000 C   0  0  0  0  0  0  0  0  0  0  0  0
   11.5194  -17.3537    0.0000 C   0  0  0  0  0  0  0  0  0  0  0  0
   13.5909  -16.9113    0.0000 C   0  0  0  0  0  0  0  0  0  0  0  0
   15.3208  -15.6502    0.0000 N   0  0  0  0  0  0  0  0  0  0  0  0
   15.9421   -9.6873    0.0000 N   0  0  0  0  0  0  0  0  0  0  0  0
   16.9011  -17.0813    0.0000 C   0  0  0  0  0  0  0  0  0  0  0  0
   16.4670  -19.1676    0.0000 C   0  0  0  0  0  0  0  0  0  0  0  0
   17.7857   -8.6229    0.0000 C   0  0  0  0  0  0  0  0  0  0  0  0
   19.6302   -9.6885    0.0000 C   0  0  0  0  0  0  0  0  0  0  0  0
   10.4602   -7.2314    0.0000 O   0  0  0  0  0  0  0  0  0  0  0  0
    7.7112  -15.6687    0.0000 C   0  0  0  0  0  0  0  0  0  0  0  0
    6.6469  -13.8252    0.0000 C   0  0  0  0  0  0  0  0  0  0  0  0
    9.4259  -16.9071    0.0000 O   0  0  0  0  0  0  0  0  0  0  0  0
    6.4243  -11.7081    0.0000 O   0  0  0  0  0  0  0  0  0  0  0  0
   13.0193   -5.1642    0.0000 O   0  0  0  0  0  0  0  0  0  0  0  0
   11.5200  -19.4839    0.0000 O   0  0  0  0  0  0  0  0  0  0  0  0
   14.4329  -19.8176    0.0000 O   0  0  0  0  0  0  0  0  0  0  0  0
   18.0397  -20.5865    0.0000 O   0  0  0  0  0  0  0  0  0  0  0  0
   19.6235  -11.8062    0.0000 O   0  0  0  0  0  0  0  0  0  0  0  0
   21.4737   -8.6241    0.0000 O   0  0  0  0  0  0  0  0  0  0  0  0
  1  2  1  0
  3  4  1  0
  5  6  1  0
  7  8  1  0
  8  9  1  0
  5  9  1  0
  6 10  1  0
  4 10  1  0
  9 11  1  0
 11 12  1  0
 10 13  1  0
 13 14  1  0
  3 15  1  0
  2 15  1  0
 16 17  1  0
 16 18  1  0
  7 18  1  0
 17 19  1  0
  1 19  1  0
  3 20  2  0
  7 21  2  0
 12 22  1  0
 12 23  2  0
 14 24  2  0
 14 25  1  0
M  END
>  <Name>  (148) 
K2-A2-15C5-2

>  <logK_Ce_z=3.0_T=25_I=1.0>  (148) 
7.4

$$$$

     RDKit          2D

 28 28  0  0  0  0  0  0  0  0999 V2000
   12.7316  -16.6173    0.0000 C   0  0  0  0  0  0  0  0  0  0  0  0
   11.0413  -17.5937    0.0000 C   0  0  0  0  0  0  0  0  0  0  0  0
   10.8176  -14.3409    0.0000 C   0  0  0  0  0  0  0  0  0  0  0  0
    9.1277  -13.3653    0.0000 C   0  0  0  0  0  0  0  0  0  0  0  0
    7.8791  -14.8517    0.0000 O   0  0  0  0  0  0  0  0  0  0  0  0
    7.8779  -11.8628    0.0000 O   0  0  0  0  0  0  0  0  0  0  0  0
   16.3451   -4.7670    0.0000 C   0  0  0  0  0  0  0  0  0  0  0  0
   14.6552   -3.7913    0.0000 C   0  0  0  0  0  0  0  0  0  0  0  0
   19.2804  -12.8443    0.0000 C   0  0  0  0  0  0  0  0  0  0  0  0
   19.2796  -14.7961    0.0000 C   0  0  0  0  0  0  0  0  0  0  0  0
   18.2537  -10.0436    0.0000 C   0  0  0  0  0  0  0  0  0  0  0  0
   18.2545   -8.0918    0.0000 C   0  0  0  0  0  0  0  0  0  0  0  0
   14.6520  -14.3317    0.0000 C   0  0  0  0  0  0  0  0  0  0  0  0
   16.3351  -13.3668    0.0000 C   0  0  0  0  0  0  0  0  0  0  0  0
   17.5905  -11.8686    0.0000 N   0  0  0  0  0  0  0  0  0  0  0  0
   17.5963  -15.7614    0.0000 O   0  0  0  0  0  0  0  0  0  0  0  0
   20.9695  -15.7718    0.0000 O   0  0  0  0  0  0  0  0  0  0  0  0
   20.1804   -7.7471    0.0000 O   0  0  0  0  0  0  0  0  0  0  0  0
   17.5897   -6.2514    0.0000 O   0  0  0  0  0  0  0  0  0  0  0  0
   12.7357   -3.4489    0.0000 O   0  0  0  0  0  0  0  0  0  0  0  0
   12.7320  -14.6653    0.0000 N   0  0  0  0  0  0  0  0  0  0  0  0
    9.3635  -16.6250    0.0000 O   0  0  0  0  0  0  0  0  0  0  0  0
   11.0409  -19.5457    0.0000 O   0  0  0  0  0  0  0  0  0  0  0  0
    7.2068  -10.0332    0.0000 C   0  0  0  0  0  0  0  0  0  0  0  0
   10.8094   -3.7934    0.0000 C   0  0  0  0  0  0  0  0  0  0  0  0
    7.2008   -8.0932    0.0000 O   0  0  0  0  0  0  0  0  0  0  0  0
    9.1195   -4.7700    0.0000 O   0  0  0  0  0  0  0  0  0  0  0  0
    7.8702   -6.2566    0.0000 C   0  0  0  0  0  0  0  0  0  0  0  0
  1  2  1  0
  3  4  1  0
  4  5  2  0
  4  6  1  0
  7  8  1  0
  9 10  1  0
 11 12  1  0
 13 14  1  0
 14 15  1  0
 11 15  1  0
  9 15  1  0
 10 16  1  0
 10 17  2  0
 12 18  2  0
 12 19  1  0
  7 19  1  0
  8 20  1  0
 13 21  1  0
  3 21  1  0
  1 21  1  0
  2 22  1  0
  2 23  2  0
  6 24  1  0
 20 25  1  0
 24 26  1  0
 25 27  1  0
 26 28  1  0
 27 28  1  0
M  END
>  <Name>  (149) 
K2-A2-21C7-1

>  <logK_Ce_z=3.0_T=25_I=1.0>  (149) 
8.57

$$$$

     RDKit          2D

  9  8  0  0  1  0  0  0  0  0999 V2000
    9.3275  -11.6290    0.0000 C   0  0  0  0  0  0  0  0  0  0  0  0
   11.4524  -12.8558    0.0000 C   0  0  0  0  0  0  0  0  0  0  0  0
   13.5772  -11.6290    0.0000 C   0  0  0  0  0  0  0  0  0  0  0  0
   15.7021  -12.8558    0.0000 C   0  0  0  0  0  0  0  0  0  0  0  0
    9.3275   -9.1754    0.0000 O   0  0  0  0  0  0  0  0  0  0  0  0
   15.7021  -15.3094    0.0000 O   0  0  0  0  0  0  0  0  0  0  0  0
   17.8270  -11.6290    0.0000 O   0  0  0  0  0  0  0  0  0  0  0  0
   13.5772   -9.1754    0.0000 N   0  0  0  0  0  0  0  0  0  0  0  0
    7.2027  -12.8558    0.0000 N   0  0  0  0  0  0  0  0  0  0  0  0
  1  2  1  0
  2  3  1  0
  3  4  1  0
  1  5  2  0
  4  6  2  0
  4  7  1  0
  3  8  1  6
  1  9  1  0
M  END
>  <Name>  (150) 
L-Asparagine

>  <logK_Ce_z=3.0_T=25_I=1.0>  (150) 
3.8

$$$$

     RDKit          2D

  7  6  0  0  1  0  0  0  0  0999 V2000
   11.2398   -7.9974    0.0000 C   0  0  0  0  0  0  0  0  0  0  0  0
   13.3721   -9.2285    0.0000 C   0  0  0  0  0  0  0  0  0  0  0  0
   15.5044   -7.9974    0.0000 C   0  0  0  0  0  0  0  0  0  0  0  0
   15.5044   -5.5353    0.0000 O   0  0  0  0  0  0  0  0  0  0  0  0
   17.6367   -9.2285    0.0000 O   0  0  0  0  0  0  0  0  0  0  0  0
   13.3721  -11.6906    0.0000 N   0  0  0  0  0  0  0  0  0  0  0  0
    9.1076   -9.2285    0.0000 S   0  0  0  0  0  0  0  0  0  0  0  0
  1  2  1  0
  2  3  1  0
  3  4  2  0
  3  5  1  0
  2  6  1  1
  1  7  1  0
M  END
>  <Name>  (151) 
L-Cysteine

>  <logK_Ce_z=3.0_T=25_I=1.0>  (151) 
4.4

$$$$

     RDKit          2D

 10  9  0  0  0  0  0  0  0  0999 V2000
    9.9654   -9.9946    0.0000 C   0  0  0  0  0  0  0  0  0  0  0  0
   12.5341  -11.4776    0.0000 C   0  0  0  0  0  0  0  0  0  0  0  0
   15.1027   -9.9946    0.0000 C   0  0  0  0  0  0  0  0  0  0  0  0
   17.6714  -11.4777    0.0000 C   0  0  0  0  0  0  0  0  0  0  0  0
   20.2400   -9.9946    0.0000 C   0  0  0  0  0  0  0  0  0  0  0  0
   22.8086  -11.4777    0.0000 O   0  0  0  0  0  0  0  0  0  0  0  0
   20.2400   -7.0286    0.0000 O   0  0  0  0  0  0  0  0  0  0  0  0
    9.9654   -7.0286    0.0000 O   0  0  0  0  0  0  0  0  0  0  0  0
    7.3968  -11.4776    0.0000 N   0  0  0  0  0  0  0  0  0  0  0  0
   17.6714  -14.4437    0.0000 N   0  0  0  0  0  0  0  0  0  0  0  0
  1  2  1  0
  2  3  1  0
  3  4  1  0
  4  5  1  0
  5  6  1  0
  5  7  2  0
  1  8  2  0
  1  9  1  0
  4 10  1  0
M  END
>  <Name>  (152) 
L-Glutamine

>  <logK_Ce_z=3.0_T=25_I=1.0>  (152) 
3.92

$$$$

     RDKit          2D

  7  6  0  0  1  0  0  0  0  0999 V2000
   13.1517  -10.1380    0.0000 C   0  0  0  0  0  0  0  0  0  0  0  0
   13.0802   -7.0746    0.0000 C   0  0  0  0  0  0  0  0  0  0  0  0
   15.8050  -11.6699    0.0000 C   0  0  0  0  0  0  0  0  0  0  0  0
   15.7681  -14.7454    0.0000 O   0  0  0  0  0  0  0  0  0  0  0  0
   18.5100  -10.2268    0.0000 O   0  0  0  0  0  0  0  0  0  0  0  0
   10.4936  -11.6805    0.0000 N   0  0  0  0  0  0  0  0  0  0  0  0
   15.6509   -5.4290    0.0000 O   0  0  0  0  0  0  0  0  0  0  0  0
  1  2  1  0
  1  3  1  0
  3  4  2  0
  3  5  1  0
  1  6  1  1
  2  7  1  0
M  END
>  <Name>  (153) 
L-Serine

>  <logK_Ce_z=3.0_T=25_I=1.0>  (153) 
3.4

$$$$

     RDKit          2D

  8  7  0  0  1  0  0  0  0  0999 V2000
    7.6923  -10.8220    0.0000 C   0  0  0  0  0  0  0  0  0  0  0  0
   10.0435   -9.4645    0.0000 C   0  0  0  0  0  0  0  0  0  0  0  0
   12.3946  -10.8220    0.0000 C   0  0  0  0  0  0  0  0  0  0  0  0
   14.7458   -9.4645    0.0000 C   0  0  0  0  0  0  0  0  0  0  0  0
   14.7458   -6.7496    0.0000 O   0  0  0  0  0  0  0  0  0  0  0  0
   17.0970  -10.8220    0.0000 O   0  0  0  0  0  0  0  0  0  0  0  0
   10.0435   -6.7496    0.0000 O   0  0  0  0  0  0  0  0  0  0  0  0
   12.3946  -13.5369    0.0000 N   0  0  0  0  0  0  0  0  0  0  0  0
  2  1  1  1
  2  3  1  0
  3  4  1  0
  4  5  2  0
  4  6  1  0
  2  7  1  0
  3  8  1  1
M  END
>  <Name>  (154) 
L-Threonine

>  <logK_Ce_z=3.0_T=25_I=1.0>  (154) 
3.7

$$$$

     RDKit          2D

  6  5  0  0  0  0  0  0  0  0999 V2000
   14.6414   -9.7749    0.0000 C   0  0  0  0  0  0  0  0  0  0  0  0
   15.8255  -11.8258    0.0000 C   0  0  0  0  0  0  0  0  0  0  0  0
   18.1937  -11.8258    0.0000 C   0  0  0  0  0  0  0  0  0  0  0  0
   19.3777   -9.7749    0.0000 O   0  0  0  0  0  0  0  0  0  0  0  0
   14.6414  -13.8767    0.0000 O   0  0  0  0  0  0  0  0  0  0  0  0
   19.3777  -13.8767    0.0000 O   0  0  0  0  0  0  0  0  0  0  0  0
  1  2  1  0
  2  3  1  0
  3  4  1  0
  2  5  1  0
  3  6  2  0
M  END
>  <Name>  (155) 
LACTIC

>  <logK_Ce_z=3.0_T=25_I=1.0>  (155) 
2.94

$$$$

     RDKit          2D

 12 12  0  0  0  0  0  0  0  0999 V2000
   13.3641   -6.8543    0.0000 C   0  0  0  0  0  0  0  0  0  0  0  0
   13.3641   -8.1843    0.0000 C   0  0  0  0  0  0  0  0  0  0  0  0
   12.2123   -6.1893    0.0000 C   0  0  0  0  0  0  0  0  0  0  0  0
   12.2123   -8.8493    0.0000 C   0  0  0  0  0  0  0  0  0  0  0  0
   11.0605   -6.8543    0.0000 C   0  0  0  0  0  0  0  0  0  0  0  0
   11.0605   -8.1843    0.0000 C   0  0  0  0  0  0  0  0  0  0  0  0
   12.2123   -4.8593    0.0000 C   0  0  0  0  0  0  0  0  0  0  0  0
   14.5159   -8.8493    0.0000 C   0  0  0  0  0  0  0  0  0  0  0  0
   11.0605   -4.1943    0.0000 O   0  0  0  0  0  0  0  0  0  0  0  0
   13.3641   -4.1943    0.0000 O   0  0  0  0  0  0  0  0  0  0  0  0
   15.6677   -8.1843    0.0000 O   0  0  0  0  0  0  0  0  0  0  0  0
   14.5159  -10.1793    0.0000 O   0  0  0  0  0  0  0  0  0  0  0  0
  2  1  2  0
  3  1  1  0
  4  2  1  0
  5  3  2  0
  6  4  2  0
  6  5  1  0
  3  7  1  0
  2  8  1  0
  7  9  1  0
  7 10  2  0
  8 11  1  0
  8 12  2  0
M  END
>  <Name>  (156) 
M-PHTHAL

>  <logK_Ce_z=3.0_T=25_I=1.0>  (156) 
3.68

$$$$

     RDKit          2D

  8  7  0  0  0  0  0  0  0  0999 V2000
   14.4143   -7.8539    0.0000 C   0  0  0  0  0  0  0  0  0  0  0  0
   16.6332   -7.9182    0.0000 C   0  0  0  0  0  0  0  0  0  0  0  0
   13.2959   -9.7911    0.0000 C   0  0  0  0  0  0  0  0  0  0  0  0
   17.8782   -9.7247    0.0000 C   0  0  0  0  0  0  0  0  0  0  0  0
   11.0501   -9.4801    0.0000 O   0  0  0  0  0  0  0  0  0  0  0  0
   13.9011  -11.9038    0.0000 O   0  0  0  0  0  0  0  0  0  0  0  0
   20.1168   -9.3723    0.0000 O   0  0  0  0  0  0  0  0  0  0  0  0
   17.3252  -11.8649    0.0000 O   0  0  0  0  0  0  0  0  0  0  0  0
  1  2  2  0
  1  3  1  0
  2  4  1  0
  3  5  1  0
  3  6  2  0
  4  7  1  0
  4  8  2  0
M  END
>  <Name>  (157) 
MALEIC

>  <logK_Ce_z=3.0_T=25_I=1.0>  (157) 
4.91

$$$$

     RDKit          2D

 10  9  0  0  0  0  0  0  0  0999 V2000
   17.8428   -8.6845    0.0000 N   0  0  0  0  0  0  0  0  0  0  0  0
   17.8428  -10.9942    0.0000 C   0  0  0  0  0  0  0  0  0  0  0  0
   19.8431   -7.5297    0.0000 C   0  0  0  0  0  0  0  0  0  0  0  0
   21.8433   -8.6845    0.0000 C   0  0  0  0  0  0  0  0  0  0  0  0
   15.8426   -7.5297    0.0000 C   0  0  0  0  0  0  0  0  0  0  0  0
   13.8423   -8.6845    0.0000 C   0  0  0  0  0  0  0  0  0  0  0  0
   11.8421   -7.5297    0.0000 O   0  0  0  0  0  0  0  0  0  0  0  0
   13.8423  -10.9942    0.0000 O   0  0  0  0  0  0  0  0  0  0  0  0
   21.8433  -10.9942    0.0000 O   0  0  0  0  0  0  0  0  0  0  0  0
   23.8436   -7.5297    0.0000 O   0  0  0  0  0  0  0  0  0  0  0  0
  1  2  1  0
  1  3  1  0
  3  4  1  0
  1  5  1  0
  5  6  1  0
  6  7  1  0
  6  8  2  0
  4  9  1  0
  4 10  2  0
M  END
>  <Name>  (158) 
MIDA

>  <logK_Ce_z=3.0_T=25_I=1.0>  (158) 
10.7

$$$$

     RDKit          2D

 17 18  0  0  0  0  0  0  0  0999 V2000
   15.6786   -7.1107    0.0000 C   0  0  0  0  0  0  0  0  0  0  0  0
   15.6786   -8.4407    0.0000 C   0  0  0  0  0  0  0  0  0  0  0  0
   14.5268   -6.4457    0.0000 C   0  0  0  0  0  0  0  0  0  0  0  0
   14.5268   -9.1057    0.0000 C   0  0  0  0  0  0  0  0  0  0  0  0
   13.3750   -7.1107    0.0000 C   0  0  0  0  0  0  0  0  0  0  0  0
   13.3750   -8.4407    0.0000 C   0  0  0  0  0  0  0  0  0  0  0  0
   17.9822   -7.1107    0.0000 C   0  0  0  0  0  0  0  0  0  0  0  0
   17.9822   -8.4407    0.0000 C   0  0  0  0  0  0  0  0  0  0  0  0
   16.8304   -6.4457    0.0000 C   0  0  0  0  0  0  0  0  0  0  0  0
   16.8304   -9.1057    0.0000 C   0  0  0  0  0  0  0  0  0  0  0  0
   12.2232   -6.4457    0.0000 S   0  0  0  0  0  0  0  0  0  0  0  0
   12.8882   -5.2939    0.0000 O   0  0  0  0  0  0  0  0  0  0  0  0
   11.5582   -7.5975    0.0000 O   0  0  0  0  0  0  0  0  0  0  0  0
   11.0714   -5.7807    0.0000 O   0  0  0  0  0  0  0  0  0  0  0  0
   16.8304   -5.1157    0.0000 N   0  0  0  0  0  0  0  0  0  0  0  0
   17.9822   -4.4507    0.0000 O   0  0  0  0  0  0  0  0  0  0  0  0
   19.1341   -6.4457    0.0000 O   0  0  0  0  0  0  0  0  0  0  0  0
  3  1  2  0
  4  2  2  0
  5  3  1  0
  6  4  1  0
  6  5  2  0
  8  7  1  0
  9  7  2  0
 10  8  2  0
  1  9  1  0
  2 10  1  0
  2  1  1  0
  5 11  1  0
 11 12  2  0
 11 13  1  0
 11 14  2  0
  9 15  1  0
 15 16  2  0
  7 17  1  0
M  END
>  <Name>  (159) 
NNS

>  <logK_Ce_z=3.0_T=25_I=1.0>  (159) 
4.09

$$$$

     RDKit          2D

  4  3  0  0  0  0  0  0  0  0999 V2000
   22.2094  -12.1724    0.0000 N   0  0  0  0  0  0  0  0  0  0  0  0
   24.0338  -11.1191    0.0000 O   0  0  0  0  0  0  0  0  0  0  0  0
   20.3850  -11.1191    0.0000 O   0  0  0  0  0  0  0  0  0  0  0  0
   22.2094  -14.2791    0.0000 O   0  0  0  0  0  0  0  0  0  0  0  0
  1  2  1  0
  1  3  1  0
  1  4  2  0
M  CHG  2   1   1   3  -1
M  END
>  <Name>  (160) 
NO3

>  <logK_Ce_z=3.0_T=25_I=1.0>  (160) 
1.13

$$$$

     RDKit          2D

 12 12  0  0  0  0  0  0  0  0999 V2000
   15.7366   -7.2910    0.0000 C   0  0  0  0  0  0  0  0  0  0  0  0
   15.7366   -8.6210    0.0000 C   0  0  0  0  0  0  0  0  0  0  0  0
   14.5848   -6.6260    0.0000 C   0  0  0  0  0  0  0  0  0  0  0  0
   14.5848   -9.2860    0.0000 C   0  0  0  0  0  0  0  0  0  0  0  0
   13.4330   -7.2910    0.0000 C   0  0  0  0  0  0  0  0  0  0  0  0
   13.4330   -8.6210    0.0000 C   0  0  0  0  0  0  0  0  0  0  0  0
   16.8884   -6.6260    0.0000 C   0  0  0  0  0  0  0  0  0  0  0  0
   16.8884   -9.2860    0.0000 C   0  0  0  0  0  0  0  0  0  0  0  0
   16.8884   -5.2960    0.0000 O   0  0  0  0  0  0  0  0  0  0  0  0
   18.0402   -7.2910    0.0000 O   0  0  0  0  0  0  0  0  0  0  0  0
   18.0402   -8.6210    0.0000 O   0  0  0  0  0  0  0  0  0  0  0  0
   16.8884  -10.6160    0.0000 O   0  0  0  0  0  0  0  0  0  0  0  0
  2  1  2  0
  3  1  1  0
  4  2  1  0
  5  3  2  0
  6  4  2  0
  6  5  1  0
  1  7  1  0
  2  8  1  0
  7  9  1  0
  7 10  2  0
  8 11  1  0
  8 12  2  0
M  END
>  <Name>  (161) 
O-PHTHAL

>  <logK_Ce_z=3.0_T=25_I=1.0>  (161) 
4.67

$$$$

     RDKit          2D

 23 22  0  0  0  0  0  0  0  0999 V2000
   13.7904   -7.8152    0.0000 C   0  0  0  0  0  0  0  0  0  0  0  0
   14.9446   -7.1488    0.0000 C   0  0  0  0  0  0  0  0  0  0  0  0
   12.6362   -7.1488    0.0000 N   0  0  0  0  0  0  0  0  0  0  0  0
   16.0988   -7.8152    0.0000 N   0  0  0  0  0  0  0  0  0  0  0  0
   16.0988   -9.1479    0.0000 C   0  0  0  0  0  0  0  0  0  0  0  0
   17.2530   -9.8143    0.0000 C   0  0  0  0  0  0  0  0  0  0  0  0
   17.2530   -7.1488    0.0000 C   0  0  0  0  0  0  0  0  0  0  0  0
   17.2530   -5.8161    0.0000 C   0  0  0  0  0  0  0  0  0  0  0  0
   12.6362   -5.8161    0.0000 C   0  0  0  0  0  0  0  0  0  0  0  0
   11.4820   -5.1497    0.0000 C   0  0  0  0  0  0  0  0  0  0  0  0
   11.4820   -7.8152    0.0000 C   0  0  0  0  0  0  0  0  0  0  0  0
   11.4820   -9.1479    0.0000 C   0  0  0  0  0  0  0  0  0  0  0  0
   10.3279   -5.8161    0.0000 O   0  0  0  0  0  0  0  0  0  0  0  0
   11.4820   -3.8170    0.0000 O   0  0  0  0  0  0  0  0  0  0  0  0
   18.4072   -9.1479    0.0000 O   0  0  0  0  0  0  0  0  0  0  0  0
   17.2530  -11.1470    0.0000 O   0  0  0  0  0  0  0  0  0  0  0  0
   16.0988   -5.1497    0.0000 O   0  0  0  0  0  0  0  0  0  0  0  0
   18.4072   -5.1497    0.0000 O   0  0  0  0  0  0  0  0  0  0  0  0
   12.6362   -9.8143    0.0000 O   0  0  0  0  0  0  0  0  0  0  0  0
   10.3279   -9.8143    0.0000 O   0  0  0  0  0  0  0  0  0  0  0  0
   13.7904   -9.1479    0.0000 C   0  0  0  0  0  0  0  0  0  0  0  0
   14.9446   -9.8143    0.0000 C   0  0  0  0  0  0  0  0  0  0  0  0
   14.9446  -11.1470    0.0000 C   0  0  0  0  0  0  0  0  0  0  0  0
  1  2  1  0
  1  3  1  0
  2  4  1  0
  4  5  1  0
  5  6  1  0
  4  7  1  0
  7  8  1  0
  3  9  1  0
  9 10  1  0
  3 11  1  0
 11 12  1  0
 10 13  1  0
 10 14  2  0
  6 15  1  0
  6 16  2  0
  8 17  1  0
  8 18  2  0
 12 19  1  0
 12 20  2  0
  1 21  1  0
 21 22  1  0
 22 23  1  0
M  END
>  <Name>  (162) 
P-AEDNTA

>  <logK_Ce_z=3.0_T=25_I=1.0>  (162) 
17.1

$$$$

     RDKit          2D

 10 10  0  0  0  0  0  0  0  0999 V2000
   15.5603   -7.1868    0.0000 C   0  0  0  0  0  0  0  0  0  0  0  0
   15.5603   -8.5168    0.0000 C   0  0  0  0  0  0  0  0  0  0  0  0
   14.4085   -6.5218    0.0000 C   0  0  0  0  0  0  0  0  0  0  0  0
   14.4085   -9.1818    0.0000 C   0  0  0  0  0  0  0  0  0  0  0  0
   13.2567   -7.1868    0.0000 C   0  0  0  0  0  0  0  0  0  0  0  0
   13.2567   -8.5168    0.0000 C   0  0  0  0  0  0  0  0  0  0  0  0
   16.7122   -9.1818    0.0000 C   0  0  0  0  0  0  0  0  0  0  0  0
   16.7122   -6.5218    0.0000 O   0  0  0  0  0  0  0  0  0  0  0  0
   17.8640   -8.5168    0.0000 O   0  0  0  0  0  0  0  0  0  0  0  0
   16.7122  -10.5118    0.0000 O   0  0  0  0  0  0  0  0  0  0  0  0
  2  1  2  0
  3  1  1  0
  4  2  1  0
  5  3  2  0
  6  4  2  0
  6  5  1  0
  2  7  1  0
  1  8  1  0
  7  9  1  0
  7 10  2  0
M  END
>  <Name>  (163) 
SALICYLIC

>  <logK_Ce_z=3.0_T=25_I=1.0>  (163) 
2.97

$$$$

     RDKit          2D

  8  7  0  0  0  0  0  0  0  0999 V2000
   13.1007   -7.8318    0.0000 C   0  0  0  0  0  0  0  0  0  0  0  0
   14.2525   -7.1668    0.0000 C   0  0  0  0  0  0  0  0  0  0  0  0
   15.4043   -7.8318    0.0000 C   0  0  0  0  0  0  0  0  0  0  0  0
   11.9488   -7.1668    0.0000 C   0  0  0  0  0  0  0  0  0  0  0  0
   16.5561   -7.1668    0.0000 O   0  0  0  0  0  0  0  0  0  0  0  0
   15.4043   -9.1618    0.0000 O   0  0  0  0  0  0  0  0  0  0  0  0
   11.9488   -5.8368    0.0000 O   0  0  0  0  0  0  0  0  0  0  0  0
   10.7970   -7.8318    0.0000 O   0  0  0  0  0  0  0  0  0  0  0  0
  1  2  1  0
  2  3  1  0
  1  4  1  0
  3  5  1  0
  3  6  2  0
  4  7  1  0
  4  8  2  0
M  END
>  <Name>  (164) 
SUCCINIC

>  <logK_Ce_z=3.0_T=25_I=1.0>  (164) 
4.4

$$$$

     RDKit          2D

  5  4  0  0  0  0  0  0  0  0999 V2000
   12.2104   -6.4898    0.0000 S   0  0  0  0  0  0  0  0  0  0  0  0
   13.0206   -5.0863    0.0000 O   0  0  0  0  0  0  0  0  0  0  0  0
   10.8069   -5.6795    0.0000 O   0  0  0  0  0  0  0  0  0  0  0  0
   13.6138   -7.3000    0.0000 O   0  0  0  0  0  0  0  0  0  0  0  0
   11.4001   -7.8932    0.0000 O   0  0  0  0  0  0  0  0  0  0  0  0
  1  2  2  0
  1  3  2  0
  1  4  1  0
  1  5  1  0
M  END
>  <Name>  (165) 
SULFURIC

>  <logK_Ce_z=3.0_T=25_I=1.0>  (165) 
2.35

$$$$

     RDKit          2D

  5  4  0  0  0  0  0  0  0  0999 V2000
   14.2632   -8.4895    0.0000 C   0  0  0  0  0  0  0  0  0  0  0  0
   15.4631   -7.8071    0.0000 C   0  0  0  0  0  0  0  0  0  0  0  0
   14.2629   -9.8858    0.0000 S   0  0  0  0  0  0  0  0  0  0  0  0
   16.6636   -8.5002    0.0000 O   0  0  0  0  0  0  0  0  0  0  0  0
   15.4634   -6.4107    0.0000 O   0  0  0  0  0  0  0  0  0  0  0  0
  1  2  1  0
  1  3  1  0
  2  4  1  0
  2  5  2  0
M  END
>  <Name>  (166) 
TGA

>  <logK_Ce_z=3.0_T=25_I=1.0>  (166) 
2.44

$$$$

     RDKit          2D

 44 47  0  0  0  0  0  0  0  0999 V2000
   18.5700  -12.7692    0.0000 C   0  0  0  0  0  0  0  0  0  0  0  0
   20.0481  -13.6225    0.0000 C   0  0  0  0  0  0  0  0  0  0  0  0
   21.5261  -12.7692    0.0000 N   0  0  0  0  0  0  0  0  0  0  0  0
   17.0920  -13.6225    0.0000 N   0  0  0  0  0  0  0  0  0  0  0  0
   21.5261  -11.0625    0.0000 C   0  0  0  0  0  0  0  0  0  0  0  0
   23.0041  -13.6225    0.0000 C   0  0  0  0  0  0  0  0  0  0  0  0
   15.6139  -12.7692    0.0000 C   0  0  0  0  0  0  0  0  0  0  0  0
   17.0920  -15.3292    0.0000 C   0  0  0  0  0  0  0  0  0  0  0  0
   23.0041  -10.2091    0.0000 C   0  0  0  0  0  0  0  0  0  0  0  0
   23.0041   -8.5024    0.0000 C   0  0  0  0  0  0  0  0  0  0  0  0
   24.4822  -11.0625    0.0000 N   0  0  0  0  0  0  0  0  0  0  0  0
   24.4822   -7.6491    0.0000 C   0  0  0  0  0  0  0  0  0  0  0  0
   25.9602  -10.2091    0.0000 C   0  0  0  0  0  0  0  0  0  0  0  0
   25.9602   -8.5024    0.0000 C   0  0  0  0  0  0  0  0  0  0  0  0
   23.0041  -15.3292    0.0000 C   0  0  0  0  0  0  0  0  0  0  0  0
   24.4822  -16.1826    0.0000 C   0  0  0  0  0  0  0  0  0  0  0  0
   21.5261  -16.1826    0.0000 N   0  0  0  0  0  0  0  0  0  0  0  0
   24.4822  -17.8893    0.0000 C   0  0  0  0  0  0  0  0  0  0  0  0
   21.5261  -17.8893    0.0000 C   0  0  0  0  0  0  0  0  0  0  0  0
   23.0041  -18.7426    0.0000 C   0  0  0  0  0  0  0  0  0  0  0  0
   15.6139  -16.1826    0.0000 C   0  0  0  0  0  0  0  0  0  0  0  0
   15.6139  -17.8893    0.0000 C   0  0  0  0  0  0  0  0  0  0  0  0
   14.1359  -15.3292    0.0000 N   0  0  0  0  0  0  0  0  0  0  0  0
   14.1359  -18.7426    0.0000 C   0  0  0  0  0  0  0  0  0  0  0  0
   12.6578  -16.1826    0.0000 C   0  0  0  0  0  0  0  0  0  0  0  0
   12.6578  -17.8893    0.0000 C   0  0  0  0  0  0  0  0  0  0  0  0
   15.6139  -11.0625    0.0000 C   0  0  0  0  0  0  0  0  0  0  0  0
   14.1359  -10.2091    0.0000 C   0  0  0  0  0  0  0  0  0  0  0  0
   17.0920  -10.2091    0.0000 N   0  0  0  0  0  0  0  0  0  0  0  0
   14.1359   -8.5024    0.0000 C   0  0  0  0  0  0  0  0  0  0  0  0
   17.0920   -8.5024    0.0000 C   0  0  0  0  0  0  0  0  0  0  0  0
   15.6139   -7.6491    0.0000 C   0  0  0  0  0  0  0  0  0  0  0  0
   18.5700   -7.6491    0.0000 C   0  0  0  0  0  0  0  0  0  0  0  0
   27.4383  -11.0625    0.0000 C   0  0  0  0  0  0  0  0  0  0  0  0
   20.0481  -18.7426    0.0000 C   0  0  0  0  0  0  0  0  0  0  0  0
   11.1798  -15.3292    0.0000 C   0  0  0  0  0  0  0  0  0  0  0  0
   18.5700   -5.9424    0.0000 O   0  0  0  0  0  0  0  0  0  0  0  0
   20.0481   -8.5024    0.0000 O   0  0  0  0  0  0  0  0  0  0  0  0
   28.9163  -10.2091    0.0000 O   0  0  0  0  0  0  0  0  0  0  0  0
   27.4383  -12.7692    0.0000 O   0  0  0  0  0  0  0  0  0  0  0  0
   18.5700  -17.8893    0.0000 O   0  0  0  0  0  0  0  0  0  0  0  0
   20.0481  -20.4493    0.0000 O   0  0  0  0  0  0  0  0  0  0  0  0
   11.1798  -13.6225    0.0000 O   0  0  0  0  0  0  0  0  0  0  0  0
    9.7018  -16.1826    0.0000 O   0  0  0  0  0  0  0  0  0  0  0  0
  1  2  1  0
  2  3  1  0
  1  4  1  0
  3  5  1  0
  3  6  1  0
  4  7  1  0
  4  8  1  0
 10  9  2  0
 11  9  1  0
 12 10  1  0
 13 11  2  0
 14 12  2  0
 14 13  1  0
  5  9  1  0
 16 15  2  0
 17 15  1  0
 18 16  1  0
 19 17  2  0
 20 18  2  0
 20 19  1  0
  6 15  1  0
 22 21  2  0
 23 21  1  0
 24 22  1  0
 25 23  2  0
 26 24  2  0
 26 25  1  0
  8 21  1  0
 28 27  2  0
 29 27  1  0
 30 28  1  0
 31 29  2  0
 32 30  2  0
 32 31  1  0
  7 27  1  0
 31 33  1  0
 13 34  1  0
 19 35  1  0
 25 36  1  0
 33 37  1  0
 33 38  2  0
 34 39  1  0
 34 40  2  0
 35 41  1  0
 35 42  2  0
 36 43  1  0
 36 44  2  0
M  END
>  <Name>  (167) 
TPAEN

>  <logK_Ce_z=3.0_T=25_I=1.0>  (167) 
2.6

$$$$
