
     RDKit          2D

  5  4  0  0  0  0  0  0  0  0999 V2000
    1.2990    0.7500    0.0000 C   0  0  0  0  0  0  0  0  0  0  0  0
    0.0000    0.0000    0.0000 C   0  0  0  0  0  0  0  0  0  0  0  0
   -1.2990    0.7500    0.0000 N   0  0  0  0  0  0  0  0  0  0  0  0
    2.5981   -0.0000    0.0000 O   0  0  0  0  0  0  0  0  0  0  0  0
    1.2990    2.2500    0.0000 O   0  0  0  0  0  0  0  0  0  0  0  0
  1  2  1  0
  2  3  1  0
  1  4  1  0
  1  5  2  0
M  END
>  <Name>  (1) 
Aminoacetic_acid_(Glycine)

>  <logK_Eu_z=3.0_T=25_I=0.1>  (1) 
3.5

$$$$

     RDKit          2D

  9  8  0  0  0  0  0  0  0  0999 V2000
   -2.5981    0.0000    0.0000 O   0  0  0  0  0  0  0  0  0  0  0  0
   -1.2990    0.7500    0.0000 C   0  0  0  0  0  0  0  0  0  0  0  0
    0.0000    0.0000    0.0000 C   0  0  0  0  0  0  0  0  0  0  0  0
    1.2990    0.7500    0.0000 C   0  0  0  0  0  0  0  0  0  0  0  0
    2.5981   -0.0000    0.0000 C   0  0  0  0  0  0  0  0  0  0  0  0
    2.5981   -1.5000    0.0000 O   0  0  0  0  0  0  0  0  0  0  0  0
    3.8971    0.7500    0.0000 O   0  0  0  0  0  0  0  0  0  0  0  0
    1.2990    2.2500    0.0000 N   0  0  0  0  0  0  0  0  0  0  0  0
   -1.2990    2.2500    0.0000 O   0  0  0  0  0  0  0  0  0  0  0  0
  1  2  1  0
  2  3  1  0
  3  4  1  0
  4  5  1  0
  5  6  2  0
  5  7  1  0
  4  8  1  6
  2  9  2  0
M  END
>  <Name>  (2) 
L-Aminobutanedioic_acid_(Aspartic_acid)

>  <logK_Eu_z=3.0_T=25_I=0.1>  (2) 
5.62

$$$$

     RDKit          2D

 12 11  0  0  0  0  0  0  0  0999 V2000
    1.2990    2.2500    0.0000 O   0  0  0  0  0  0  0  0  0  0  0  0
    1.2990    0.7500    0.0000 C   0  0  0  0  0  0  0  0  0  0  0  0
    0.0000    0.0000    0.0000 C   0  0  0  0  0  0  0  0  0  0  0  0
   -1.2990    0.7500    0.0000 N   0  0  0  0  0  0  0  0  0  0  0  0
   -2.5981    0.0000    0.0000 C   0  0  0  0  0  0  0  0  0  0  0  0
   -3.8971    0.7500    0.0000 C   0  0  0  0  0  0  0  0  0  0  0  0
   -5.1962    0.0000    0.0000 N   0  0  0  0  0  0  0  0  0  0  0  0
   -6.4952    0.7500    0.0000 C   0  0  0  0  0  0  0  0  0  0  0  0
   -7.7942    0.0000    0.0000 C   0  0  0  0  0  0  0  0  0  0  0  0
   -9.0933    0.7500    0.0000 O   0  0  0  0  0  0  0  0  0  0  0  0
   -7.7942   -1.5000    0.0000 O   0  0  0  0  0  0  0  0  0  0  0  0
    2.5981   -0.0000    0.0000 O   0  0  0  0  0  0  0  0  0  0  0  0
  1  2  2  0
  2  3  1  0
  3  4  1  0
  4  5  1  0
  5  6  1  0
  6  7  1  0
  7  8  1  0
  8  9  1  0
  9 10  1  0
  9 11  2  0
  2 12  1  0
M  END
>  <Name>  (3) 
Ethylenediiminodiacetic_acid_(EDDA)

>  <logK_Eu_z=3.0_T=25_I=0.1>  (3) 
8.38

$$$$

     RDKit          2D

 18 17  0  0  0  0  0  0  0  0999 V2000
    0.0000    0.0000    0.0000 C   0  0  0  0  0  0  0  0  0  0  0  0
    1.2990    0.7500    0.0000 C   0  0  0  0  0  0  0  0  0  0  0  0
    2.5981   -0.0000    0.0000 N   0  0  0  0  0  0  0  0  0  0  0  0
    3.8971    0.7500    0.0000 C   0  0  0  0  0  0  0  0  0  0  0  0
    5.1962   -0.0000    0.0000 C   0  0  0  0  0  0  0  0  0  0  0  0
    5.1962   -1.5000    0.0000 O   0  0  0  0  0  0  0  0  0  0  0  0
    6.4952    0.7500    0.0000 O   0  0  0  0  0  0  0  0  0  0  0  0
    3.8971    2.2500    0.0000 C   0  0  0  0  0  0  0  0  0  0  0  0
    2.5981    3.0000    0.0000 O   0  0  0  0  0  0  0  0  0  0  0  0
    5.1962    3.0000    0.0000 O   0  0  0  0  0  0  0  0  0  0  0  0
   -1.2990    0.7500    0.0000 N   0  0  0  0  0  0  0  0  0  0  0  0
   -2.5981    0.0000    0.0000 C   0  0  0  0  0  0  0  0  0  0  0  0
   -3.8971    0.7500    0.0000 C   0  0  0  0  0  0  0  0  0  0  0  0
   -3.8971    2.2500    0.0000 O   0  0  0  0  0  0  0  0  0  0  0  0
   -5.1962    0.0000    0.0000 O   0  0  0  0  0  0  0  0  0  0  0  0
   -2.5981   -1.5000    0.0000 C   0  0  0  0  0  0  0  0  0  0  0  0
   -1.2990   -2.2500    0.0000 O   0  0  0  0  0  0  0  0  0  0  0  0
   -3.8971   -2.2500    0.0000 O   0  0  0  0  0  0  0  0  0  0  0  0
  1  2  1  0
  2  3  1  0
  3  4  1  0
  4  5  1  0
  5  6  2  0
  5  7  1  0
  4  8  1  0
  8  9  2  0
  8 10  1  0
  1 11  1  0
 11 12  1  0
 12 13  1  0
 13 14  2  0
 13 15  1  0
 12 16  1  0
 16 17  2  0
 16 18  1  0
M  END
>  <Name>  (4) 
Ethylenediiminodipropanedioic_acid_(EDDM)

>  <logK_Eu_z=3.0_T=20_I=0.1>  (4) 
12.69

$$$$

     RDKit          2D

 20 19  0  0  0  0  0  0  0  0999 V2000
   -2.5981    0.0000    0.0000 O   0  0  0  0  0  0  0  0  0  0  0  0
   -1.2990    0.7500    0.0000 C   0  0  0  0  0  0  0  0  0  0  0  0
   -1.2990    2.2500    0.0000 O   0  0  0  0  0  0  0  0  0  0  0  0
    0.0000    0.0000    0.0000 C   0  0  0  0  0  0  0  0  0  0  0  0
    1.2990    0.7500    0.0000 C   0  0  0  0  0  0  0  0  0  0  0  0
    1.2990    2.2500    0.0000 N   0  0  0  0  0  0  0  0  0  0  0  0
    2.5981    3.0000    0.0000 C   0  0  0  0  0  0  0  0  0  0  0  0
    2.5981    4.5000    0.0000 C   0  0  0  0  0  0  0  0  0  0  0  0
    3.8971    5.2500    0.0000 N   0  0  0  0  0  0  0  0  0  0  0  0
    3.8971    6.7500    0.0000 C   0  0  0  0  0  0  0  0  0  0  0  0
    5.1962    7.5000    0.0000 C   0  0  0  0  0  0  0  0  0  0  0  0
    5.1962    9.0000    0.0000 C   0  0  0  0  0  0  0  0  0  0  0  0
    6.4952    9.7500    0.0000 O   0  0  0  0  0  0  0  0  0  0  0  0
    3.8971    9.7500    0.0000 O   0  0  0  0  0  0  0  0  0  0  0  0
    2.5981    7.5000    0.0000 C   0  0  0  0  0  0  0  0  0  0  0  0
    2.5981    9.0000    0.0000 O   0  0  0  0  0  0  0  0  0  0  0  0
    1.2990    6.7500    0.0000 O   0  0  0  0  0  0  0  0  0  0  0  0
    2.5981   -0.0000    0.0000 C   0  0  0  0  0  0  0  0  0  0  0  0
    3.8971    0.7500    0.0000 O   0  0  0  0  0  0  0  0  0  0  0  0
    2.5981   -1.5000    0.0000 O   0  0  0  0  0  0  0  0  0  0  0  0
  1  2  1  0
  2  3  2  0
  2  4  1  0
  4  5  1  0
  5  6  1  0
  6  7  1  0
  7  8  1  0
  8  9  1  0
  9 10  1  0
 10 11  1  0
 11 12  1  0
 12 13  1  0
 12 14  2  0
 10 15  1  0
 15 16  1  0
 15 17  2  0
  5 18  1  0
 18 19  1  0
 18 20  2  0
M  END
>  <Name>  (5) 
Ethylenediiminodibutanedioic_acid_(EDDS)

>  <logK_Eu_z=3.0_T=25_I=0.1>  (5) 
13.54

>  <logK_Eu_z=3.0_T=20_I=0.1>  (5) 
13.83

$$$$

     RDKit          2D

 22 21  0  0  0  0  0  0  0  0999 V2000
    1.2990    2.2500    0.0000 O   0  0  0  0  0  0  0  0  0  0  0  0
    1.2990    0.7500    0.0000 C   0  0  0  0  0  0  0  0  0  0  0  0
    0.0000    0.0000    0.0000 C   0  0  0  0  0  0  0  0  0  0  0  0
   -1.2990    0.7500    0.0000 N   0  0  0  0  0  0  0  0  0  0  0  0
   -2.5981    0.0000    0.0000 C   0  0  0  0  0  0  0  0  0  0  0  0
   -2.5981   -1.5000    0.0000 C   0  0  0  0  0  0  0  0  0  0  0  0
   -1.2990   -2.2500    0.0000 O   0  0  0  0  0  0  0  0  0  0  0  0
   -3.8971   -2.2500    0.0000 O   0  0  0  0  0  0  0  0  0  0  0  0
   -3.8971    0.7500    0.0000 C   0  0  0  0  0  0  0  0  0  0  0  0
   -5.1962    0.0000    0.0000 C   0  0  0  0  0  0  0  0  0  0  0  0
   -5.1962   -1.5000    0.0000 O   0  0  0  0  0  0  0  0  0  0  0  0
   -6.4952    0.7500    0.0000 O   0  0  0  0  0  0  0  0  0  0  0  0
    2.5981   -0.0000    0.0000 C   0  0  0  0  0  0  0  0  0  0  0  0
    3.8971    0.7500    0.0000 N   0  0  0  0  0  0  0  0  0  0  0  0
    5.1962   -0.0000    0.0000 C   0  0  0  0  0  0  0  0  0  0  0  0
    5.1962   -1.5000    0.0000 C   0  0  0  0  0  0  0  0  0  0  0  0
    3.8971   -2.2500    0.0000 O   0  0  0  0  0  0  0  0  0  0  0  0
    6.4952   -2.2500    0.0000 O   0  0  0  0  0  0  0  0  0  0  0  0
    6.4952    0.7500    0.0000 C   0  0  0  0  0  0  0  0  0  0  0  0
    7.7942   -0.0000    0.0000 C   0  0  0  0  0  0  0  0  0  0  0  0
    7.7942   -1.5000    0.0000 O   0  0  0  0  0  0  0  0  0  0  0  0
    9.0933    0.7500    0.0000 O   0  0  0  0  0  0  0  0  0  0  0  0
  1  2  1  0
  2  3  1  0
  3  4  1  0
  4  5  1  0
  5  6  1  0
  6  7  2  0
  6  8  1  0
  5  9  1  0
  9 10  1  0
 10 11  2  0
 10 12  1  0
  2 13  1  0
 13 14  1  0
 14 15  1  0
 15 16  1  0
 16 17  2  0
 16 18  1  0
 15 19  1  0
 19 20  1  0
 20 21  2  0
 20 22  1  0
M  END
>  <Name>  (6) 
2-Hydroxy-1,3-propylenediiminodibutanedioic_acid_(rac-_or_meso-isomer_not_stated)

>  <logK_Eu_z=3.0_T=25_I=0.1>  (6) 
11.3

$$$$

     RDKit          2D

 11 10  0  0  0  0  0  0  0  0999 V2000
    1.2990    0.7500    0.0000 C   0  0  0  0  0  0  0  0  0  0  0  0
    2.5981   -0.0000    0.0000 O   0  0  0  0  0  0  0  0  0  0  0  0
    0.0000    0.0000    0.0000 C   0  0  0  0  0  0  0  0  0  0  0  0
   -1.2990    0.7500    0.0000 N   0  0  0  0  0  0  0  0  0  0  0  0
   -2.5981    0.0000    0.0000 C   0  0  0  0  0  0  0  0  0  0  0  0
   -3.8971    0.7500    0.0000 C   0  0  0  0  0  0  0  0  0  0  0  0
   -5.1962    0.0000    0.0000 O   0  0  0  0  0  0  0  0  0  0  0  0
   -1.2990    2.2500    0.0000 C   0  0  0  0  0  0  0  0  0  0  0  0
   -2.5981    3.0000    0.0000 C   0  0  0  0  0  0  0  0  0  0  0  0
   -2.5981    4.5000    0.0000 O   0  0  0  0  0  0  0  0  0  0  0  0
    1.2990    2.2500    0.0000 O   0  0  0  0  0  0  0  0  0  0  0  0
  1  2  1  0
  1  3  1  0
  3  4  1  0
  4  5  1  0
  5  6  1  0
  6  7  1  0
  4  8  1  0
  8  9  1  0
  9 10  1  0
  1 11  2  0
M  END
>  <Name>  (7) 
N,N-Bis(2-hydroxyethyl)glycine_(Bicine)

>  <logK_Eu_z=3.0_T=20_I=0.1>  (7) 
5.73

$$$$

     RDKit          2D

 12 11  0  0  0  0  0  0  0  0999 V2000
    3.8971    5.2500    0.0000 O   0  0  0  0  0  0  0  0  0  0  0  0
    2.5981    4.5000    0.0000 C   0  0  0  0  0  0  0  0  0  0  0  0
    2.5981    3.0000    0.0000 C   0  0  0  0  0  0  0  0  0  0  0  0
    1.2990    2.2500    0.0000 N   0  0  0  0  0  0  0  0  0  0  0  0
    1.2990    0.7500    0.0000 C   0  0  0  0  0  0  0  0  0  0  0  0
    0.0000    0.0000    0.0000 C   0  0  0  0  0  0  0  0  0  0  0  0
    2.5981   -0.0000    0.0000 C   0  0  0  0  0  0  0  0  0  0  0  0
    2.5981   -1.5000    0.0000 O   0  0  0  0  0  0  0  0  0  0  0  0
    3.8971    0.7500    0.0000 O   0  0  0  0  0  0  0  0  0  0  0  0
   -0.0000    3.0000    0.0000 C   0  0  0  0  0  0  0  0  0  0  0  0
   -0.0000    4.5000    0.0000 C   0  0  0  0  0  0  0  0  0  0  0  0
   -1.2990    5.2500    0.0000 O   0  0  0  0  0  0  0  0  0  0  0  0
  1  2  1  0
  2  3  1  0
  3  4  1  0
  4  5  1  0
  5  6  1  0
  5  7  1  0
  7  8  2  0
  7  9  1  0
  4 10  1  0
 10 11  1  0
 11 12  1  0
M  END
>  <Name>  (8) 
DL-N,N-Bis(2-hydroxyethyl)alanine

>  <logK_Eu_z=3.0_T=20_I=0.1>  (8) 
5.36

$$$$

     RDKit          2D

 28 29  0  0  0  0  0  0  0  0999 V2000
    5.2500   -9.0933    0.0000 O   0  0  0  0  0  0  0  0  0  0  0  0
    3.7500   -9.0933    0.0000 C   0  0  0  0  0  0  0  0  0  0  0  0
    3.0000  -10.3923    0.0000 O   0  0  0  0  0  0  0  0  0  0  0  0
    3.0000   -7.7942    0.0000 C   0  0  0  0  0  0  0  0  0  0  0  0
    1.5000   -7.7942    0.0000 N   0  0  0  0  0  0  0  0  0  0  0  0
    0.7500   -6.4952    0.0000 C   0  0  0  0  0  0  0  0  0  0  0  0
    1.5000   -5.1962    0.0000 C   0  0  0  0  0  0  0  0  0  0  0  0
    0.7500   -3.8971    0.0000 N   0  0  0  0  0  0  0  0  0  0  0  0
   -0.7500   -3.8971    0.0000 C   0  0  0  0  0  0  0  0  0  0  0  0
   -1.5000   -5.1962    0.0000 C   0  0  0  0  0  0  0  0  0  0  0  0
   -3.0000   -5.1962    0.0000 O   0  0  0  0  0  0  0  0  0  0  0  0
   -0.7500   -6.4952    0.0000 O   0  0  0  0  0  0  0  0  0  0  0  0
    1.5000   -2.5981    0.0000 C   0  0  0  0  0  0  0  0  0  0  0  0
    0.7500   -1.2990    0.0000 C   0  0  0  0  0  0  0  0  0  0  0  0
    1.5000    0.0000    0.0000 C   0  0  0  0  0  0  0  0  0  0  0  0
    0.7500    1.2990    0.0000 C   0  0  0  0  0  0  0  0  0  0  0  0
   -0.7500    1.2990    0.0000 C   0  0  0  0  0  0  0  0  0  0  0  0
   -1.5000    0.0000    0.0000 C   0  0  0  0  0  0  0  0  0  0  0  0
   -0.7500   -1.2990    0.0000 C   0  0  0  0  0  0  0  0  0  0  0  0
   -1.5000   -2.5981    0.0000 O   0  0  0  0  0  0  0  0  0  0  0  0
    0.7500   -9.0933    0.0000 C   0  0  0  0  0  0  0  0  0  0  0  0
   -0.7500   -9.0933    0.0000 C   0  0  0  0  0  0  0  0  0  0  0  0
   -1.5000   -7.7942    0.0000 C   0  0  0  0  0  0  0  0  0  0  0  0
   -3.0000   -7.7942    0.0000 C   0  0  0  0  0  0  0  0  0  0  0  0
   -3.7500   -9.0933    0.0000 C   0  0  0  0  0  0  0  0  0  0  0  0
   -3.0000  -10.3923    0.0000 C   0  0  0  0  0  0  0  0  0  0  0  0
   -1.5000  -10.3923    0.0000 C   0  0  0  0  0  0  0  0  0  0  0  0
   -0.7500  -11.6913    0.0000 O   0  0  0  0  0  0  0  0  0  0  0  0
  1  2  1  0
  2  3  2  0
  2  4  1  0
  4  5  1  0
  5  6  1  0
  6  7  1  0
  7  8  1  0
  8  9  1  0
  9 10  1  0
 10 11  1  0
 10 12  2  0
  8 13  1  0
 13 14  1  0
 14 15  2  0
 15 16  1  0
 16 17  2  0
 17 18  1  0
 18 19  2  0
 19 20  1  0
  5 21  1  0
 21 22  1  0
 22 23  2  0
 23 24  1  0
 24 25  2  0
 25 26  1  0
 26 27  2  0
 27 28  1  0
 19 14  1  0
 27 22  1  0
M  END
>  <Name>  (9) 
N,N'-Bis(2-hydroxybenzyl)ethylenedinitrilodiacetic_acid_(HBED)

>  <logK_Eu_z=3.0_T=20_I=0.1>  (9) 
19.28

$$$$

     RDKit          2D

 24 24  0  0  0  0  0  0  0  0999 V2000
    2.8978    0.0000    0.0000 O   0  0  0  0  0  0  0  0  0  0  0  0
    2.5095   -1.4489    0.0000 C   0  0  0  0  0  0  0  0  0  0  0  0
    1.4489   -2.5095    0.0000 C   0  0  0  0  0  0  0  0  0  0  0  0
   -0.0000   -2.8978    0.0000 N   0  0  0  0  0  0  0  0  0  0  0  0
   -1.4489   -2.5095    0.0000 C   0  0  0  0  0  0  0  0  0  0  0  0
   -2.5095   -1.4489    0.0000 C   0  0  0  0  0  0  0  0  0  0  0  0
   -2.8978    0.0000    0.0000 N   0  0  0  0  0  0  0  0  0  0  0  0
   -2.5095    1.4489    0.0000 C   0  0  0  0  0  0  0  0  0  0  0  0
   -1.4489    2.5095    0.0000 C   0  0  0  0  0  0  0  0  0  0  0  0
    0.0000    2.8978    0.0000 N   0  0  0  0  0  0  0  0  0  0  0  0
    1.4489    2.5095    0.0000 C   0  0  0  0  0  0  0  0  0  0  0  0
    2.5095    1.4489    0.0000 C   0  0  0  0  0  0  0  0  0  0  0  0
    0.0000    4.3978    0.0000 C   0  0  0  0  0  0  0  0  0  0  0  0
    1.2990    5.1478    0.0000 C   0  0  0  0  0  0  0  0  0  0  0  0
    2.5981    4.3978    0.0000 O   0  0  0  0  0  0  0  0  0  0  0  0
    1.2990    6.6478    0.0000 O   0  0  0  0  0  0  0  0  0  0  0  0
   -4.3978    0.0000    0.0000 C   0  0  0  0  0  0  0  0  0  0  0  0
   -5.1478    1.2990    0.0000 C   0  0  0  0  0  0  0  0  0  0  0  0
   -4.3978    2.5981    0.0000 O   0  0  0  0  0  0  0  0  0  0  0  0
   -6.6478    1.2990    0.0000 O   0  0  0  0  0  0  0  0  0  0  0  0
   -0.0000   -4.3978    0.0000 C   0  0  0  0  0  0  0  0  0  0  0  0
   -1.2990   -5.1478    0.0000 C   0  0  0  0  0  0  0  0  0  0  0  0
   -2.5981   -4.3978    0.0000 O   0  0  0  0  0  0  0  0  0  0  0  0
   -1.2990   -6.6478    0.0000 O   0  0  0  0  0  0  0  0  0  0  0  0
  1  2  1  0
  2  3  1  0
  3  4  1  0
  4  5  1  0
  5  6  1  0
  6  7  1  0
  7  8  1  0
  8  9  1  0
  9 10  1  0
 10 11  1  0
 11 12  1  0
 10 13  1  0
 13 14  1  0
 14 15  2  0
 14 16  1  0
  7 17  1  0
 17 18  1  0
 18 19  2  0
 18 20  1  0
  4 21  1  0
 21 22  1  0
 22 23  2  0
 22 24  1  0
 12  1  1  0
M  END
>  <Name>  (10) 
1-Oxa-4,7,10-triazacyclododecane-4,7,10-triacetic_acid

>  <logK_Eu_z=3.0_T=25_I=0.1>  (10) 
19.1

$$$$

     RDKit          2D

 29 29  0  0  0  0  0  0  0  0999 V2000
    5.1073    0.0000    0.0000 O   0  0  0  0  0  0  0  0  0  0  0  0
    3.6073    0.0000    0.0000 C   0  0  0  0  0  0  0  0  0  0  0  0
    3.2954    1.4672    0.0000 C   0  0  0  0  0  0  0  0  0  0  0  0
    2.4138    2.6807    0.0000 N   0  0  0  0  0  0  0  0  0  0  0  0
    1.1147    3.4307    0.0000 C   0  0  0  0  0  0  0  0  0  0  0  0
   -0.3771    3.5875    0.0000 C   0  0  0  0  0  0  0  0  0  0  0  0
   -1.8037    3.1240    0.0000 N   0  0  0  0  0  0  0  0  0  0  0  0
   -2.9184    2.1203    0.0000 C   0  0  0  0  0  0  0  0  0  0  0  0
   -3.5285    0.7500    0.0000 C   0  0  0  0  0  0  0  0  0  0  0  0
   -3.5285   -0.7500    0.0000 N   0  0  0  0  0  0  0  0  0  0  0  0
   -2.9184   -2.1203    0.0000 C   0  0  0  0  0  0  0  0  0  0  0  0
   -1.8037   -3.1240    0.0000 C   0  0  0  0  0  0  0  0  0  0  0  0
   -0.3771   -3.5875    0.0000 N   0  0  0  0  0  0  0  0  0  0  0  0
    1.1147   -3.4307    0.0000 C   0  0  0  0  0  0  0  0  0  0  0  0
    2.4138   -2.6807    0.0000 C   0  0  0  0  0  0  0  0  0  0  0  0
    3.2954   -1.4672    0.0000 N   0  0  0  0  0  0  0  0  0  0  0  0
   -2.5537   -4.4231    0.0000 O   0  0  0  0  0  0  0  0  0  0  0  0
   -4.9957   -1.0619    0.0000 C   0  0  0  0  0  0  0  0  0  0  0  0
   -5.9994    0.0528    0.0000 C   0  0  0  0  0  0  0  0  0  0  0  0
   -5.5359    1.4794    0.0000 O   0  0  0  0  0  0  0  0  0  0  0  0
   -7.4666   -0.2590    0.0000 O   0  0  0  0  0  0  0  0  0  0  0  0
   -2.5537    4.4231    0.0000 C   0  0  0  0  0  0  0  0  0  0  0  0
   -1.8037    5.7221    0.0000 C   0  0  0  0  0  0  0  0  0  0  0  0
   -0.3037    5.7221    0.0000 O   0  0  0  0  0  0  0  0  0  0  0  0
   -2.5537    7.0211    0.0000 O   0  0  0  0  0  0  0  0  0  0  0  0
    3.4175    3.7955    0.0000 C   0  0  0  0  0  0  0  0  0  0  0  0
    4.8847    3.4836    0.0000 C   0  0  0  0  0  0  0  0  0  0  0  0
    5.3482    2.0570    0.0000 O   0  0  0  0  0  0  0  0  0  0  0  0
    5.8884    4.5983    0.0000 O   0  0  0  0  0  0  0  0  0  0  0  0
  1  2  2  0
  2  3  1  0
  3  4  1  0
  4  5  1  0
  5  6  1  0
  6  7  1  0
  7  8  1  0
  8  9  1  0
  9 10  1  0
 10 11  1  0
 11 12  1  0
 12 13  1  0
 13 14  1  0
 14 15  1  0
 15 16  1  0
 12 17  2  0
 10 18  1  0
 18 19  1  0
 19 20  2  0
 19 21  1  0
  7 22  1  0
 22 23  1  0
 23 24  2  0
 23 25  1  0
  4 26  1  0
 26 27  1  0
 27 28  2  0
 27 29  1  0
 16  2  1  0
M  END
>  <Name>  (11) 
9,14-Dioxo-1,4,7,10,13-pentaazacyclopentadecane-1,4,7-triacetic_acid

>  <logK_Eu_z=3.0_T=25_I=0.1>  (11) 
11.7

$$$$

     RDKit          2D

 35 35  0  0  0  0  0  0  0  0999 V2000
    6.5321    0.0000    0.0000 O   0  0  0  0  0  0  0  0  0  0  0  0
    5.0321    0.0000    0.0000 C   0  0  0  0  0  0  0  0  0  0  0  0
    4.8086    1.4832    0.0000 C   0  0  0  0  0  0  0  0  0  0  0  0
    4.1577    2.8347    0.0000 N   0  0  0  0  0  0  0  0  0  0  0  0
    3.1375    3.9343    0.0000 C   0  0  0  0  0  0  0  0  0  0  0  0
    1.8384    4.6843    0.0000 C   0  0  0  0  0  0  0  0  0  0  0  0
    0.3761    5.0181    0.0000 N   0  0  0  0  0  0  0  0  0  0  0  0
   -1.1198    4.9060    0.0000 C   0  0  0  0  0  0  0  0  0  0  0  0
   -2.5161    4.3580    0.0000 C   0  0  0  0  0  0  0  0  0  0  0  0
   -3.6888    3.4227    0.0000 N   0  0  0  0  0  0  0  0  0  0  0  0
   -4.5338    2.1834    0.0000 C   0  0  0  0  0  0  0  0  0  0  0  0
   -4.9759    0.7500    0.0000 C   0  0  0  0  0  0  0  0  0  0  0  0
   -4.9759   -0.7500    0.0000 N   0  0  0  0  0  0  0  0  0  0  0  0
   -4.5338   -2.1834    0.0000 C   0  0  0  0  0  0  0  0  0  0  0  0
   -3.6888   -3.4227    0.0000 C   0  0  0  0  0  0  0  0  0  0  0  0
   -2.5161   -4.3580    0.0000 O   0  0  0  0  0  0  0  0  0  0  0  0
   -1.1198   -4.9060    0.0000 C   0  0  0  0  0  0  0  0  0  0  0  0
    0.3761   -5.0181    0.0000 C   0  0  0  0  0  0  0  0  0  0  0  0
    1.8384   -4.6843    0.0000 O   0  0  0  0  0  0  0  0  0  0  0  0
    3.1375   -3.9343    0.0000 C   0  0  0  0  0  0  0  0  0  0  0  0
    4.1577   -2.8347    0.0000 C   0  0  0  0  0  0  0  0  0  0  0  0
    4.8086   -1.4832    0.0000 N   0  0  0  0  0  0  0  0  0  0  0  0
   -6.4592    0.9736    0.0000 O   0  0  0  0  0  0  0  0  0  0  0  0
   -4.7884    4.4430    0.0000 C   0  0  0  0  0  0  0  0  0  0  0  0
   -4.4546    5.9054    0.0000 C   0  0  0  0  0  0  0  0  0  0  0  0
   -3.0212    6.3475    0.0000 O   0  0  0  0  0  0  0  0  0  0  0  0
   -5.5542    6.9256    0.0000 O   0  0  0  0  0  0  0  0  0  0  0  0
    0.4881    6.5139    0.0000 C   0  0  0  0  0  0  0  0  0  0  0  0
    1.8396    7.1647    0.0000 C   0  0  0  0  0  0  0  0  0  0  0  0
    3.0790    6.3197    0.0000 O   0  0  0  0  0  0  0  0  0  0  0  0
    1.9517    8.6605    0.0000 O   0  0  0  0  0  0  0  0  0  0  0  0
    5.3971    3.6797    0.0000 C   0  0  0  0  0  0  0  0  0  0  0  0
    5.2850    5.1755    0.0000 C   0  0  0  0  0  0  0  0  0  0  0  0
    3.9336    5.8263    0.0000 O   0  0  0  0  0  0  0  0  0  0  0  0
    6.5244    6.0205    0.0000 O   0  0  0  0  0  0  0  0  0  0  0  0
  1  2  2  0
  2  3  1  0
  3  4  1  0
  4  5  1  0
  5  6  1  0
  6  7  1  0
  7  8  1  0
  8  9  1  0
  9 10  1  0
 10 11  1  0
 11 12  1  0
 12 13  1  0
 13 14  1  0
 14 15  1  0
 15 16  1  0
 16 17  1  0
 17 18  1  0
 18 19  1  0
 19 20  1  0
 20 21  1  0
 21 22  1  0
 12 23  2  0
 10 24  1  0
 24 25  1  0
 25 26  2  0
 25 27  1  0
  7 28  1  0
 28 29  1  0
 29 30  2  0
 29 31  1  0
  4 32  1  0
 32 33  1  0
 33 34  2  0
 33 35  1  0
 22  2  1  0
M  END
>  <Name>  (12) 
9,20-Dioxo-13,16-dioxa-1,4,7,10,19-pentaazacycloheneicosane-1,4,7-triacetic_acid

>  <logK_Eu_z=3.0_T=25_I=0.1>  (12) 
17.2

$$$$

     RDKit          2D

 29 29  0  0  0  0  0  0  0  0999 V2000
    5.1073    0.0000    0.0000 O   0  0  0  0  0  0  0  0  0  0  0  0
    3.6073    0.0000    0.0000 C   0  0  0  0  0  0  0  0  0  0  0  0
    3.2954    1.4672    0.0000 C   0  0  0  0  0  0  0  0  0  0  0  0
    2.4138    2.6807    0.0000 N   0  0  0  0  0  0  0  0  0  0  0  0
    1.1147    3.4307    0.0000 C   0  0  0  0  0  0  0  0  0  0  0  0
   -0.3771    3.5875    0.0000 C   0  0  0  0  0  0  0  0  0  0  0  0
   -1.8037    3.1240    0.0000 N   0  0  0  0  0  0  0  0  0  0  0  0
   -2.9184    2.1203    0.0000 C   0  0  0  0  0  0  0  0  0  0  0  0
   -3.5285    0.7500    0.0000 C   0  0  0  0  0  0  0  0  0  0  0  0
   -3.5285   -0.7500    0.0000 N   0  0  0  0  0  0  0  0  0  0  0  0
   -2.9184   -2.1203    0.0000 C   0  0  0  0  0  0  0  0  0  0  0  0
   -1.8037   -3.1240    0.0000 C   0  0  0  0  0  0  0  0  0  0  0  0
   -0.3771   -3.5875    0.0000 N   0  0  0  0  0  0  0  0  0  0  0  0
    1.1147   -3.4307    0.0000 C   0  0  0  0  0  0  0  0  0  0  0  0
    2.4138   -2.6807    0.0000 C   0  0  0  0  0  0  0  0  0  0  0  0
    3.2954   -1.4672    0.0000 N   0  0  0  0  0  0  0  0  0  0  0  0
   -0.5339   -5.0793    0.0000 C   0  0  0  0  0  0  0  0  0  0  0  0
   -1.9042   -5.6894    0.0000 C   0  0  0  0  0  0  0  0  0  0  0  0
   -3.1177   -4.8077    0.0000 O   0  0  0  0  0  0  0  0  0  0  0  0
   -2.0610   -7.1812    0.0000 O   0  0  0  0  0  0  0  0  0  0  0  0
   -4.9957    1.0619    0.0000 O   0  0  0  0  0  0  0  0  0  0  0  0
   -2.5537    4.4231    0.0000 C   0  0  0  0  0  0  0  0  0  0  0  0
   -1.8037    5.7221    0.0000 C   0  0  0  0  0  0  0  0  0  0  0  0
   -0.3037    5.7221    0.0000 O   0  0  0  0  0  0  0  0  0  0  0  0
   -2.5537    7.0211    0.0000 O   0  0  0  0  0  0  0  0  0  0  0  0
    3.4175    3.7955    0.0000 C   0  0  0  0  0  0  0  0  0  0  0  0
    4.8847    3.4836    0.0000 C   0  0  0  0  0  0  0  0  0  0  0  0
    5.3482    2.0570    0.0000 O   0  0  0  0  0  0  0  0  0  0  0  0
    5.8884    4.5983    0.0000 O   0  0  0  0  0  0  0  0  0  0  0  0
  1  2  2  0
  2  3  1  0
  3  4  1  0
  4  5  1  0
  5  6  1  0
  6  7  1  0
  7  8  1  0
  8  9  1  0
  9 10  1  0
 10 11  1  0
 11 12  1  0
 12 13  1  0
 13 14  1  0
 14 15  1  0
 15 16  1  0
 13 17  1  0
 17 18  1  0
 18 19  2  0
 18 20  1  0
  9 21  2  0
  7 22  1  0
 22 23  1  0
 23 24  2  0
 23 25  1  0
  4 26  1  0
 26 27  1  0
 27 28  2  0
 27 29  1  0
 16  2  1  0
M  END
>  <Name>  (13) 
6,14-Dioxo-1,4,7,10,13-pentaazacyclopentadecane-1,4,10-triacetic_acid

>  <logK_Eu_z=3.0_T=25_I=0.1>  (13) 
15.3

$$$$

     RDKit          2D

 28 28  0  0  0  0  0  0  0  0999 V2000
    6.6478   -1.2990    0.0000 O   0  0  0  0  0  0  0  0  0  0  0  0
    5.1478   -1.2990    0.0000 C   0  0  0  0  0  0  0  0  0  0  0  0
    4.3978    0.0000    0.0000 C   0  0  0  0  0  0  0  0  0  0  0  0
    2.8978    0.0000    0.0000 N   0  0  0  0  0  0  0  0  0  0  0  0
    2.5095   -1.4489    0.0000 C   0  0  0  0  0  0  0  0  0  0  0  0
    1.4489   -2.5095    0.0000 C   0  0  0  0  0  0  0  0  0  0  0  0
   -0.0000   -2.8978    0.0000 N   0  0  0  0  0  0  0  0  0  0  0  0
   -0.0000   -4.3978    0.0000 C   0  0  0  0  0  0  0  0  0  0  0  0
   -1.2990   -5.1478    0.0000 C   0  0  0  0  0  0  0  0  0  0  0  0
   -2.5981   -4.3978    0.0000 O   0  0  0  0  0  0  0  0  0  0  0  0
   -1.2990   -6.6478    0.0000 O   0  0  0  0  0  0  0  0  0  0  0  0
   -1.4489   -2.5095    0.0000 C   0  0  0  0  0  0  0  0  0  0  0  0
   -2.5095   -1.4489    0.0000 C   0  0  0  0  0  0  0  0  0  0  0  0
   -2.8978    0.0000    0.0000 N   0  0  0  0  0  0  0  0  0  0  0  0
   -4.3978    0.0000    0.0000 C   0  0  0  0  0  0  0  0  0  0  0  0
   -5.1478    1.2990    0.0000 C   0  0  0  0  0  0  0  0  0  0  0  0
   -4.3978    2.5981    0.0000 O   0  0  0  0  0  0  0  0  0  0  0  0
   -6.6478    1.2990    0.0000 O   0  0  0  0  0  0  0  0  0  0  0  0
   -2.5095    1.4489    0.0000 C   0  0  0  0  0  0  0  0  0  0  0  0
   -1.4489    2.5095    0.0000 C   0  0  0  0  0  0  0  0  0  0  0  0
    0.0000    2.8978    0.0000 N   0  0  0  0  0  0  0  0  0  0  0  0
    0.0000    4.3978    0.0000 C   0  0  0  0  0  0  0  0  0  0  0  0
    1.2990    5.1478    0.0000 C   0  0  0  0  0  0  0  0  0  0  0  0
    2.5981    4.3978    0.0000 O   0  0  0  0  0  0  0  0  0  0  0  0
    1.2990    6.6478    0.0000 O   0  0  0  0  0  0  0  0  0  0  0  0
    1.4489    2.5095    0.0000 C   0  0  0  0  0  0  0  0  0  0  0  0
    2.5095    1.4489    0.0000 C   0  0  0  0  0  0  0  0  0  0  0  0
    4.3978   -2.5981    0.0000 O   0  0  0  0  0  0  0  0  0  0  0  0
  1  2  1  0
  2  3  1  0
  3  4  1  0
  4  5  1  0
  5  6  1  0
  6  7  1  0
  7  8  1  0
  8  9  1  0
  9 10  2  0
  9 11  1  0
  7 12  1  0
 12 13  1  0
 13 14  1  0
 14 15  1  0
 15 16  1  0
 16 17  2  0
 16 18  1  0
 14 19  1  0
 19 20  1  0
 20 21  1  0
 21 22  1  0
 22 23  1  0
 23 24  2  0
 23 25  1  0
 21 26  1  0
 26 27  1  0
  2 28  2  0
 27  4  1  0
M  END
>  <Name>  (14) 
1,4,7,10-Tetraazacyclododecane-N,N',N'',N'''-tetraacetic_acid_(DOTA)

>  <logK_Eu_z=3.0_T=25_I=0.1>  (14) 
24.2

$$$$

     RDKit          2D

 10  9  0  0  0  0  0  0  0  0999 V2000
   -1.2990    0.7500    0.0000 N   0  0  0  0  0  0  0  0  0  0  0  0
    0.0000    0.0000    0.0000 C   0  0  0  0  0  0  0  0  0  0  0  0
    1.2990    0.7500    0.0000 C   0  0  0  0  0  0  0  0  0  0  0  0
    2.5981   -0.0000    0.0000 N   0  0  0  0  0  0  0  0  0  0  0  0
    3.8971    0.7500    0.0000 C   0  0  0  0  0  0  0  0  0  0  0  0
    5.1962   -0.0000    0.0000 C   0  0  0  0  0  0  0  0  0  0  0  0
    6.4952    0.7500    0.0000 N   0  0  0  0  0  0  0  0  0  0  0  0
    7.7942   -0.0000    0.0000 C   0  0  0  0  0  0  0  0  0  0  0  0
    9.0933    0.7500    0.0000 C   0  0  0  0  0  0  0  0  0  0  0  0
   10.3923   -0.0000    0.0000 N   0  0  0  0  0  0  0  0  0  0  0  0
  1  2  1  0
  2  3  1  0
  3  4  1  0
  4  5  1  0
  5  6  1  0
  6  7  1  0
  7  8  1  0
  8  9  1  0
  9 10  1  0
M  END
>  <Name>  (15) 
1,4,8,11-Tetraazacyclotetradecane-N,N',N'',N'''-tetraacetic_acid_(TETA)

>  <logK_Eu_z=3.0_T=25_I=0.1>  (15) 
14.0

$$$$

     RDKit          2D

 17 16  0  0  0  0  0  0  0  0999 V2000
   -0.2010   -4.4462    0.0000 F   0  0  0  0  0  0  0  0  0  0  0  0
    0.5490   -3.1471    0.0000 C   0  0  0  0  0  0  0  0  0  0  0  0
    1.2990   -1.8481    0.0000 C   0  0  0  0  0  0  0  0  0  0  0  0
    2.0490   -0.5490    0.0000 O   0  0  0  0  0  0  0  0  0  0  0  0
    1.2990    0.7500    0.0000 C   0  0  0  0  0  0  0  0  0  0  0  0
    2.5981    1.5000    0.0000 C   0  0  0  0  0  0  0  0  0  0  0  0
    3.8971    2.2500    0.0000 F   0  0  0  0  0  0  0  0  0  0  0  0
    1.8481    2.7990    0.0000 F   0  0  0  0  0  0  0  0  0  0  0  0
    3.3481    0.2010    0.0000 F   0  0  0  0  0  0  0  0  0  0  0  0
   -0.0000    0.0000    0.0000 C   0  0  0  0  0  0  0  0  0  0  0  0
   -1.2990    0.7500    0.0000 O   0  0  0  0  0  0  0  0  0  0  0  0
   -0.0972   -0.7912    0.0000 O   0  0  0  0  0  0  0  0  0  0  0  0
    0.5490    2.0490    0.0000 F   0  0  0  0  0  0  0  0  0  0  0  0
    0.5652   -1.5366    0.0000 F   0  0  0  0  0  0  0  0  0  0  0  0
    2.5981   -2.5981    0.0000 F   0  0  0  0  0  0  0  0  0  0  0  0
    1.8481   -3.8971    0.0000 F   0  0  0  0  0  0  0  0  0  0  0  0
   -0.7500   -2.3971    0.0000 F   0  0  0  0  0  0  0  0  0  0  0  0
  1  2  1  0
  2  3  1  0
  3  4  1  0
  4  5  1  0
  5  6  1  0
  6  7  1  0
  6  8  1  0
  6  9  1  0
  5 10  1  0
 10 11  1  0
 10 12  2  0
  5 13  1  0
  3 14  1  0
  3 15  1  0
  2 16  1  0
  2 17  1  0
M  END
>  <Name>  (16) 
1,4,7,10,13-Pentaazacyclopentadecane-N,N',N'',N''',N''''-pentaacetic_acid_(PEPA)

>  <logK_Eu_z=3.0_T=25_I=0.1>  (16) 
15.59

$$$$

     RDKit          2D

 32 32  0  0  0  0  0  0  0  0999 V2000
    5.8191    0.0000    0.0000 O   0  0  0  0  0  0  0  0  0  0  0  0
    4.3191    0.0000    0.0000 C   0  0  0  0  0  0  0  0  0  0  0  0
    4.0586   -1.4772    0.0000 C   0  0  0  0  0  0  0  0  0  0  0  0
    3.3086   -2.7762    0.0000 N   0  0  0  0  0  0  0  0  0  0  0  0
    2.1595   -3.7404    0.0000 C   0  0  0  0  0  0  0  0  0  0  0  0
    0.7500   -4.2535    0.0000 C   0  0  0  0  0  0  0  0  0  0  0  0
   -0.7500   -4.2535    0.0000 N   0  0  0  0  0  0  0  0  0  0  0  0
   -2.1595   -3.7404    0.0000 C   0  0  0  0  0  0  0  0  0  0  0  0
   -3.3086   -2.7762    0.0000 C   0  0  0  0  0  0  0  0  0  0  0  0
   -4.0586   -1.4772    0.0000 N   0  0  0  0  0  0  0  0  0  0  0  0
   -4.3191    0.0000    0.0000 C   0  0  0  0  0  0  0  0  0  0  0  0
   -4.0586    1.4772    0.0000 C   0  0  0  0  0  0  0  0  0  0  0  0
   -3.3086    2.7762    0.0000 N   0  0  0  0  0  0  0  0  0  0  0  0
   -2.1595    3.7404    0.0000 C   0  0  0  0  0  0  0  0  0  0  0  0
   -0.7500    4.2535    0.0000 C   0  0  0  0  0  0  0  0  0  0  0  0
    0.7500    4.2535    0.0000 N   0  0  0  0  0  0  0  0  0  0  0  0
    2.1595    3.7404    0.0000 C   0  0  0  0  0  0  0  0  0  0  0  0
    3.3086    2.7762    0.0000 C   0  0  0  0  0  0  0  0  0  0  0  0
    4.0586    1.4772    0.0000 N   0  0  0  0  0  0  0  0  0  0  0  0
   -5.4681    1.9902    0.0000 O   0  0  0  0  0  0  0  0  0  0  0  0
   -5.4681   -1.9902    0.0000 C   0  0  0  0  0  0  0  0  0  0  0  0
   -6.6172   -1.0261    0.0000 C   0  0  0  0  0  0  0  0  0  0  0  0
   -6.3567    0.4512    0.0000 O   0  0  0  0  0  0  0  0  0  0  0  0
   -8.0268   -1.5391    0.0000 O   0  0  0  0  0  0  0  0  0  0  0  0
   -1.0105   -5.7307    0.0000 C   0  0  0  0  0  0  0  0  0  0  0  0
   -2.4200   -6.2437    0.0000 C   0  0  0  0  0  0  0  0  0  0  0  0
   -3.5691   -5.2795    0.0000 O   0  0  0  0  0  0  0  0  0  0  0  0
   -2.6805   -7.7209    0.0000 O   0  0  0  0  0  0  0  0  0  0  0  0
    4.4577   -3.7404    0.0000 C   0  0  0  0  0  0  0  0  0  0  0  0
    4.1972   -5.2176    0.0000 C   0  0  0  0  0  0  0  0  0  0  0  0
    2.7877   -5.7307    0.0000 O   0  0  0  0  0  0  0  0  0  0  0  0
    5.3463   -6.1818    0.0000 O   0  0  0  0  0  0  0  0  0  0  0  0
  1  2  2  0
  2  3  1  0
  3  4  1  0
  4  5  1  0
  5  6  1  0
  6  7  1  0
  7  8  1  0
  8  9  1  0
  9 10  1  0
 10 11  1  0
 11 12  1  0
 12 13  1  0
 13 14  1  0
 14 15  1  0
 15 16  1  0
 16 17  1  0
 17 18  1  0
 18 19  1  0
 12 20  2  0
 10 21  1  0
 21 22  1  0
 22 23  2  0
 22 24  1  0
  7 25  1  0
 25 26  1  0
 26 27  2  0
 26 28  1  0
  4 29  1  0
 29 30  1  0
 30 31  2  0
 30 32  1  0
 19  2  1  0
M  END
>  <Name>  (17) 
9,17-Dioxo-1,4,7,10,13,16-hexaazacyclooctadecane-1,4,7-triacetic_acid_(DTPA-dien)

>  <logK_Eu_z=3.0_T=25_I=0.1>  (17) 
17.2

$$$$

     RDKit          2D

  9  8  0  0  0  0  0  0  0  0999 V2000
    1.2990    0.7500    0.0000 C   0  0  0  0  0  0  0  0  0  0  0  0
    0.0000    0.0000    0.0000 C   0  0  0  0  0  0  0  0  0  0  0  0
   -1.2990    0.7500    0.0000 N   0  0  0  0  0  0  0  0  0  0  0  0
   -2.5981    0.0000    0.0000 C   0  0  0  0  0  0  0  0  0  0  0  0
   -3.8971    0.7500    0.0000 C   0  0  0  0  0  0  0  0  0  0  0  0
   -5.1962    0.0000    0.0000 O   0  0  0  0  0  0  0  0  0  0  0  0
   -3.8971    2.2500    0.0000 O   0  0  0  0  0  0  0  0  0  0  0  0
    2.5981   -0.0000    0.0000 O   0  0  0  0  0  0  0  0  0  0  0  0
    1.2990    2.2500    0.0000 O   0  0  0  0  0  0  0  0  0  0  0  0
  1  2  1  0
  2  3  1  0
  3  4  1  0
  4  5  1  0
  5  6  1  0
  5  7  2  0
  1  8  1  0
  1  9  2  0
M  END
>  <Name>  (18) 
Iminodiacetic_acid_(IDA)

>  <logK_Eu_z=3.0_T=25_I=0.1>  (18) 
6.73

>  <logK_Eu_z=3.0_T=25_I=1.0>  (18) 
6.46

$$$$

     RDKit          2D

 16 16  0  0  0  0  0  0  0  0999 V2000
    5.2500    1.2990    0.0000 O   0  0  0  0  0  0  0  0  0  0  0  0
    6.0000    0.0000    0.0000 C   0  0  0  0  0  0  0  0  0  0  0  0
    5.2500   -1.2990    0.0000 C   0  0  0  0  0  0  0  0  0  0  0  0
    3.7500   -1.2990    0.0000 N   0  0  0  0  0  0  0  0  0  0  0  0
    3.0000   -2.5981    0.0000 C   0  0  0  0  0  0  0  0  0  0  0  0
    3.7500   -3.8971    0.0000 C   0  0  0  0  0  0  0  0  0  0  0  0
    5.2500   -3.8971    0.0000 O   0  0  0  0  0  0  0  0  0  0  0  0
    3.0000   -5.1962    0.0000 O   0  0  0  0  0  0  0  0  0  0  0  0
    3.0000    0.0000    0.0000 C   0  0  0  0  0  0  0  0  0  0  0  0
    1.5000    0.0000    0.0000 C   0  0  0  0  0  0  0  0  0  0  0  0
    0.7500   -1.2990    0.0000 C   0  0  0  0  0  0  0  0  0  0  0  0
   -0.7500   -1.2990    0.0000 C   0  0  0  0  0  0  0  0  0  0  0  0
   -1.5000    0.0000    0.0000 C   0  0  0  0  0  0  0  0  0  0  0  0
   -0.7500    1.2990    0.0000 C   0  0  0  0  0  0  0  0  0  0  0  0
    0.7500    1.2990    0.0000 C   0  0  0  0  0  0  0  0  0  0  0  0
    7.5000   -0.0000    0.0000 O   0  0  0  0  0  0  0  0  0  0  0  0
  1  2  1  0
  2  3  1  0
  3  4  1  0
  4  5  1  0
  5  6  1  0
  6  7  2  0
  6  8  1  0
  4  9  1  0
  9 10  1  0
 10 11  2  0
 11 12  1  0
 12 13  2  0
 13 14  1  0
 14 15  2  0
  2 16  2  0
 15 10  1  0
M  END
>  <Name>  (19) 
N-Benzyliminodiacetic_acid

>  <logK_Eu_z=3.0_T=25_I=0.1>  (19) 
6.07

$$$$

     RDKit          2D

 13 12  0  0  0  0  0  0  0  0999 V2000
    2.5981   -0.0000    0.0000 O   0  0  0  0  0  0  0  0  0  0  0  0
    1.2990    0.7500    0.0000 C   0  0  0  0  0  0  0  0  0  0  0  0
    0.0000    0.0000    0.0000 C   0  0  0  0  0  0  0  0  0  0  0  0
   -1.2990    0.7500    0.0000 N   0  0  0  0  0  0  0  0  0  0  0  0
   -2.5981    0.0000    0.0000 C   0  0  0  0  0  0  0  0  0  0  0  0
   -2.5981   -1.5000    0.0000 C   0  0  0  0  0  0  0  0  0  0  0  0
   -3.8971   -2.2500    0.0000 O   0  0  0  0  0  0  0  0  0  0  0  0
   -1.2990   -2.2500    0.0000 O   0  0  0  0  0  0  0  0  0  0  0  0
   -1.2990    2.2500    0.0000 C   0  0  0  0  0  0  0  0  0  0  0  0
   -2.5981    3.0000    0.0000 C   0  0  0  0  0  0  0  0  0  0  0  0
   -2.5981    4.5000    0.0000 O   0  0  0  0  0  0  0  0  0  0  0  0
   -3.8971    2.2500    0.0000 O   0  0  0  0  0  0  0  0  0  0  0  0
    1.2990    2.2500    0.0000 O   0  0  0  0  0  0  0  0  0  0  0  0
  1  2  1  0
  2  3  1  0
  3  4  1  0
  4  5  1  0
  5  6  1  0
  6  7  1  0
  6  8  2  0
  4  9  1  0
  9 10  1  0
 10 11  1  0
 10 12  2  0
  2 13  2  0
M  END
>  <Name>  (20) 
Nitrilotriacetic_acid_(NTA)

>  <logK_Eu_z=3.0_T=25_I=0.1>  (20) 
11.32

>  <logK_Eu_z=3.0_T=25_I=0.5>  (20) 
11.15

$$$$

     RDKit          2D

 19 18  0  0  0  0  0  0  0  0999 V2000
   10.3923   -0.0000    0.0000 O   0  0  0  0  0  0  0  0  0  0  0  0
    9.0933    0.7500    0.0000 C   0  0  0  0  0  0  0  0  0  0  0  0
    7.7942   -0.0000    0.0000 C   0  0  0  0  0  0  0  0  0  0  0  0
    6.4952    0.7500    0.0000 C   0  0  0  0  0  0  0  0  0  0  0  0
    5.1962   -0.0000    0.0000 C   0  0  0  0  0  0  0  0  0  0  0  0
    3.8971    0.7500    0.0000 C   0  0  0  0  0  0  0  0  0  0  0  0
    2.5981   -0.0000    0.0000 C   0  0  0  0  0  0  0  0  0  0  0  0
    1.2990    0.7500    0.0000 C   0  0  0  0  0  0  0  0  0  0  0  0
    0.0000    0.0000    0.0000 C   0  0  0  0  0  0  0  0  0  0  0  0
    7.7942   -1.5000    0.0000 N   0  0  0  0  0  0  0  0  0  0  0  0
    9.0933   -2.2500    0.0000 C   0  0  0  0  0  0  0  0  0  0  0  0
    9.0933   -3.7500    0.0000 C   0  0  0  0  0  0  0  0  0  0  0  0
    8.3073   -4.3423    0.0000 O   0  0  0  0  0  0  0  0  0  0  0  0
   10.3923   -4.5000    0.0000 O   0  0  0  0  0  0  0  0  0  0  0  0
    6.4952   -2.2500    0.0000 C   0  0  0  0  0  0  0  0  0  0  0  0
    6.4952   -3.7500    0.0000 C   0  0  0  0  0  0  0  0  0  0  0  0
    7.2812   -4.3423    0.0000 O   0  0  0  0  0  0  0  0  0  0  0  0
    5.1962   -4.5000    0.0000 O   0  0  0  0  0  0  0  0  0  0  0  0
    9.0933    2.2500    0.0000 O   0  0  0  0  0  0  0  0  0  0  0  0
  1  2  1  0
  2  3  1  0
  3  4  1  0
  4  5  1  0
  5  6  1  0
  6  7  1  0
  7  8  1  0
  8  9  1  0
  3 10  1  0
 10 11  1  0
 11 12  1  0
 12 13  2  0
 12 14  1  0
 10 15  1  0
 15 16  1  0
 16 17  2  0
 16 18  1  0
  2 19  2  0
M  END
>  <Name>  (21) 
DL-2-Hexylnitrilotriacetic_acid

>  <logK_Eu_z=3.0_T=20_I=0.1>  (21) 
11.06

$$$$

     RDKit          2D

 14 13  0  0  0  0  0  0  0  0999 V2000
    1.2990    2.2500    0.0000 O   0  0  0  0  0  0  0  0  0  0  0  0
    1.2990    0.7500    0.0000 C   0  0  0  0  0  0  0  0  0  0  0  0
    0.0000    0.0000    0.0000 C   0  0  0  0  0  0  0  0  0  0  0  0
   -1.2990    0.7500    0.0000 O   0  0  0  0  0  0  0  0  0  0  0  0
    2.5981   -0.0000    0.0000 C   0  0  0  0  0  0  0  0  0  0  0  0
    3.8971    0.7500    0.0000 N   0  0  0  0  0  0  0  0  0  0  0  0
    5.1962   -0.0000    0.0000 C   0  0  0  0  0  0  0  0  0  0  0  0
    5.1962   -1.5000    0.0000 C   0  0  0  0  0  0  0  0  0  0  0  0
    3.8971   -2.2500    0.0000 O   0  0  0  0  0  0  0  0  0  0  0  0
    6.4952   -2.2500    0.0000 O   0  0  0  0  0  0  0  0  0  0  0  0
    3.8971    2.2500    0.0000 C   0  0  0  0  0  0  0  0  0  0  0  0
    5.1962    3.0000    0.0000 C   0  0  0  0  0  0  0  0  0  0  0  0
    5.1962    4.5000    0.0000 O   0  0  0  0  0  0  0  0  0  0  0  0
    6.4952    2.2500    0.0000 O   0  0  0  0  0  0  0  0  0  0  0  0
  1  2  1  0
  2  3  1  0
  3  4  1  0
  2  5  1  0
  5  6  1  0
  6  7  1  0
  7  8  1  0
  8  9  2  0
  8 10  1  0
  6 11  1  0
 11 12  1  0
 12 13  2  0
 12 14  1  0
M  END
>  <Name>  (22) 
DL-N-(2,3-Dihydroxypropyl)iminodiacetic_acid

>  <logK_Eu_z=3.0_T=20_I=0.1>  (22) 
8.51

$$$$

     RDKit          2D

 13 12  0  0  0  0  0  0  0  0999 V2000
    1.2990    0.7500    0.0000 O   0  0  0  0  0  0  0  0  0  0  0  0
    0.0000    0.0000    0.0000 C   0  0  0  0  0  0  0  0  0  0  0  0
    2.5981   -0.0000    0.0000 C   0  0  0  0  0  0  0  0  0  0  0  0
    3.8971    0.7500    0.0000 C   0  0  0  0  0  0  0  0  0  0  0  0
    5.1962   -0.0000    0.0000 N   0  0  0  0  0  0  0  0  0  0  0  0
    6.4952    0.7500    0.0000 C   0  0  0  0  0  0  0  0  0  0  0  0
    7.7942   -0.0000    0.0000 C   0  0  0  0  0  0  0  0  0  0  0  0
    7.7942   -1.5000    0.0000 O   0  0  0  0  0  0  0  0  0  0  0  0
    9.0933    0.7500    0.0000 O   0  0  0  0  0  0  0  0  0  0  0  0
    5.1962   -1.5000    0.0000 C   0  0  0  0  0  0  0  0  0  0  0  0
    3.8971   -2.2500    0.0000 C   0  0  0  0  0  0  0  0  0  0  0  0
    2.5981   -1.5000    0.0000 O   0  0  0  0  0  0  0  0  0  0  0  0
    3.8971   -3.7500    0.0000 O   0  0  0  0  0  0  0  0  0  0  0  0
  1  2  1  0
  1  3  1  0
  3  4  1  0
  4  5  1  0
  5  6  1  0
  6  7  1  0
  7  8  2  0
  7  9  1  0
  5 10  1  0
 10 11  1  0
 11 12  2  0
 11 13  1  0
M  END
>  <Name>  (23) 
N-(2-Methoxyethyl)iminodiacetic_acid

>  <logK_Eu_z=3.0_T=25_I=0.1>  (23) 
7.99

$$$$

     RDKit          2D

 13 12  0  0  0  0  0  0  0  0999 V2000
    1.2990    0.7500    0.0000 S   0  0  0  0  0  0  0  0  0  0  0  0
    0.0000    0.0000    0.0000 C   0  0  0  0  0  0  0  0  0  0  0  0
    2.5981   -0.0000    0.0000 C   0  0  0  0  0  0  0  0  0  0  0  0
    3.8971    0.7500    0.0000 C   0  0  0  0  0  0  0  0  0  0  0  0
    5.1962   -0.0000    0.0000 N   0  0  0  0  0  0  0  0  0  0  0  0
    6.4952    0.7500    0.0000 C   0  0  0  0  0  0  0  0  0  0  0  0
    7.7942   -0.0000    0.0000 C   0  0  0  0  0  0  0  0  0  0  0  0
    7.7942   -1.5000    0.0000 O   0  0  0  0  0  0  0  0  0  0  0  0
    9.0933    0.7500    0.0000 O   0  0  0  0  0  0  0  0  0  0  0  0
    5.1962   -1.5000    0.0000 C   0  0  0  0  0  0  0  0  0  0  0  0
    3.8971   -2.2500    0.0000 C   0  0  0  0  0  0  0  0  0  0  0  0
    2.5981   -1.5000    0.0000 O   0  0  0  0  0  0  0  0  0  0  0  0
    3.8971   -3.7500    0.0000 O   0  0  0  0  0  0  0  0  0  0  0  0
  1  2  1  0
  1  3  1  0
  3  4  1  0
  4  5  1  0
  5  6  1  0
  6  7  1  0
  7  8  2  0
  7  9  1  0
  5 10  1  0
 10 11  1  0
 11 12  2  0
 11 13  1  0
M  END
>  <Name>  (24) 
N-[2-(Methylthio)ethyl]iminodiacetic_acid

>  <logK_Eu_z=3.0_T=25_I=0.1>  (24) 
6.24

$$$$

     RDKit          2D

 19 18  0  0  0  0  0  0  0  0999 V2000
   -1.2990    0.7500    0.0000 O   0  0  0  0  0  0  0  0  0  0  0  0
    0.0000    0.0000    0.0000 C   0  0  0  0  0  0  0  0  0  0  0  0
    1.2990    0.7500    0.0000 C   0  0  0  0  0  0  0  0  0  0  0  0
    2.5981   -0.0000    0.0000 N   0  0  0  0  0  0  0  0  0  0  0  0
    3.8971    0.7500    0.0000 C   0  0  0  0  0  0  0  0  0  0  0  0
    5.1962   -0.0000    0.0000 C   0  0  0  0  0  0  0  0  0  0  0  0
    6.4952    0.7500    0.0000 N   0  0  0  0  0  0  0  0  0  0  0  0
    7.7942   -0.0000    0.0000 C   0  0  0  0  0  0  0  0  0  0  0  0
    9.0933    0.7500    0.0000 C   0  0  0  0  0  0  0  0  0  0  0  0
   10.3923   -0.0000    0.0000 O   0  0  0  0  0  0  0  0  0  0  0  0
    9.0933    2.2500    0.0000 O   0  0  0  0  0  0  0  0  0  0  0  0
    6.4952    2.2500    0.0000 C   0  0  0  0  0  0  0  0  0  0  0  0
    5.1962    3.0000    0.0000 C   0  0  0  0  0  0  0  0  0  0  0  0
    5.1962    4.5000    0.0000 O   0  0  0  0  0  0  0  0  0  0  0  0
    3.8971    2.2500    0.0000 O   0  0  0  0  0  0  0  0  0  0  0  0
    2.5981   -1.5000    0.0000 C   0  0  0  0  0  0  0  0  0  0  0  0
    3.8971   -2.2500    0.0000 C   0  0  0  0  0  0  0  0  0  0  0  0
    3.8971   -3.7500    0.0000 O   0  0  0  0  0  0  0  0  0  0  0  0
    5.1962   -1.5000    0.0000 O   0  0  0  0  0  0  0  0  0  0  0  0
  1  2  1  0
  2  3  1  0
  3  4  1  0
  4  5  1  0
  5  6  1  0
  6  7  1  0
  7  8  1  0
  8  9  1  0
  9 10  1  0
  9 11  2  0
  7 12  1  0
 12 13  1  0
 13 14  1  0
 13 15  2  0
  4 16  1  0
 16 17  1  0
 17 18  1  0
 17 19  2  0
M  END
>  <Name>  (25) 
N-(2-Hydroxyethyl)ethylenedinitrilotriacetic_acid_(HEDTA)

>  <logK_Eu_z=3.0_T=25_I=0.1>  (25) 
15.34

>  <logK_Eu_z=3.0_T=25_I=0.5>  (25) 
14.9

$$$$

     RDKit          2D

 20 19  0  0  0  0  0  0  0  0999 V2000
   -1.2990    0.7500    0.0000 N   0  0  0  0  0  0  0  0  0  0  0  0
    0.0000    0.0000    0.0000 C   0  0  0  0  0  0  0  0  0  0  0  0
    1.2990    0.7500    0.0000 C   0  0  0  0  0  0  0  0  0  0  0  0
    1.2990    2.2500    0.0000 O   0  0  0  0  0  0  0  0  0  0  0  0
    2.5981   -0.0000    0.0000 O   0  0  0  0  0  0  0  0  0  0  0  0
   -1.2990    2.2500    0.0000 C   0  0  0  0  0  0  0  0  0  0  0  0
   -2.5981    3.0000    0.0000 C   0  0  0  0  0  0  0  0  0  0  0  0
   -3.8971    2.2500    0.0000 O   0  0  0  0  0  0  0  0  0  0  0  0
   -2.5981    4.5000    0.0000 O   0  0  0  0  0  0  0  0  0  0  0  0
   -2.5981    0.0000    0.0000 C   0  0  0  0  0  0  0  0  0  0  0  0
   -3.8971    0.7500    0.0000 C   0  0  0  0  0  0  0  0  0  0  0  0
   -5.1962    0.0000    0.0000 N   0  0  0  0  0  0  0  0  0  0  0  0
   -6.4952    0.7500    0.0000 C   0  0  0  0  0  0  0  0  0  0  0  0
   -7.7942    0.0000    0.0000 C   0  0  0  0  0  0  0  0  0  0  0  0
   -7.7942   -1.5000    0.0000 O   0  0  0  0  0  0  0  0  0  0  0  0
   -9.0933    0.7500    0.0000 O   0  0  0  0  0  0  0  0  0  0  0  0
   -5.1962   -1.5000    0.0000 C   0  0  0  0  0  0  0  0  0  0  0  0
   -3.8971   -2.2500    0.0000 C   0  0  0  0  0  0  0  0  0  0  0  0
   -2.5981   -1.5000    0.0000 O   0  0  0  0  0  0  0  0  0  0  0  0
   -3.8971   -3.7500    0.0000 O   0  0  0  0  0  0  0  0  0  0  0  0
  1  2  1  0
  2  3  1  0
  3  4  2  0
  3  5  1  0
  1  6  1  0
  6  7  1  0
  7  8  2  0
  7  9  1  0
  1 10  1  0
 10 11  1  0
 11 12  1  0
 12 13  1  0
 13 14  1  0
 14 15  2  0
 14 16  1  0
 12 17  1  0
 17 18  1  0
 18 19  2  0
 18 20  1  0
M  END
>  <Name>  (26) 
Ethylenedinitrilotetraacetic_acid_(EDTA)

>  <logK_Eu_z=3.0_T=25_I=0.1>  (26) 
17.25

>  <logK_Eu_z=3.0_T=25_I=0.5>  (26) 
16.23

$$$$

     RDKit          2D

 21 20  0  0  0  0  0  0  0  0999 V2000
    0.0000    0.0000    0.0000 C   0  0  0  0  0  0  0  0  0  0  0  0
    1.2990    0.7500    0.0000 C   0  0  0  0  0  0  0  0  0  0  0  0
    2.5981   -0.0000    0.0000 C   0  0  0  0  0  0  0  0  0  0  0  0
    3.8971    0.7500    0.0000 N   0  0  0  0  0  0  0  0  0  0  0  0
    5.1962   -0.0000    0.0000 C   0  0  0  0  0  0  0  0  0  0  0  0
    5.1962   -1.5000    0.0000 C   0  0  0  0  0  0  0  0  0  0  0  0
    6.4952   -2.2500    0.0000 O   0  0  0  0  0  0  0  0  0  0  0  0
    3.8971   -2.2500    0.0000 O   0  0  0  0  0  0  0  0  0  0  0  0
    3.8971    2.2500    0.0000 C   0  0  0  0  0  0  0  0  0  0  0  0
    5.1962    3.0000    0.0000 C   0  0  0  0  0  0  0  0  0  0  0  0
    5.1962    4.5000    0.0000 O   0  0  0  0  0  0  0  0  0  0  0  0
    6.4952    2.2500    0.0000 O   0  0  0  0  0  0  0  0  0  0  0  0
    1.2990    2.2500    0.0000 N   0  0  0  0  0  0  0  0  0  0  0  0
    2.5981    3.0000    0.0000 C   0  0  0  0  0  0  0  0  0  0  0  0
    2.5981    4.5000    0.0000 C   0  0  0  0  0  0  0  0  0  0  0  0
    3.8971    5.2500    0.0000 O   0  0  0  0  0  0  0  0  0  0  0  0
    1.2990    5.2500    0.0000 O   0  0  0  0  0  0  0  0  0  0  0  0
   -0.0000    3.0000    0.0000 C   0  0  0  0  0  0  0  0  0  0  0  0
   -1.2990    2.2500    0.0000 C   0  0  0  0  0  0  0  0  0  0  0  0
   -2.5981    3.0000    0.0000 O   0  0  0  0  0  0  0  0  0  0  0  0
   -1.2990    0.7500    0.0000 O   0  0  0  0  0  0  0  0  0  0  0  0
  1  2  1  0
  2  3  1  0
  3  4  1  0
  4  5  1  0
  5  6  1  0
  6  7  1  0
  6  8  2  0
  4  9  1  0
  9 10  1  0
 10 11  1  0
 10 12  2  0
  2 13  1  0
 13 14  1  0
 14 15  1  0
 15 16  1  0
 15 17  2  0
 13 18  1  0
 18 19  1  0
 19 20  1  0
 19 21  2  0
M  END
>  <Name>  (27) 
DL-(Methylethylene)dinitrilotetraacetic_acid_(PDTA)

>  <logK_Eu_z=3.0_T=20_I=0.1>  (27) 
18.26

$$$$

     RDKit          2D

 22 21  0  0  0  0  0  0  0  0999 V2000
    0.0000    0.0000    0.0000 C   0  0  0  0  0  0  0  0  0  0  0  0
    1.2990    0.7500    0.0000 C   0  0  0  0  0  0  0  0  0  0  0  0
    2.0490   -0.5490    0.0000 C   0  0  0  0  0  0  0  0  0  0  0  0
    1.2990   -1.8481    0.0000 N   0  0  0  0  0  0  0  0  0  0  0  0
   -0.2010   -1.8481    0.0000 C   0  0  0  0  0  0  0  0  0  0  0  0
   -0.9510   -3.1471    0.0000 C   0  0  0  0  0  0  0  0  0  0  0  0
   -0.2010   -4.4462    0.0000 O   0  0  0  0  0  0  0  0  0  0  0  0
   -2.4510   -3.1471    0.0000 O   0  0  0  0  0  0  0  0  0  0  0  0
    2.0490   -3.1471    0.0000 C   0  0  0  0  0  0  0  0  0  0  0  0
    3.5490   -3.1471    0.0000 C   0  0  0  0  0  0  0  0  0  0  0  0
    4.2990   -4.4462    0.0000 O   0  0  0  0  0  0  0  0  0  0  0  0
    4.2990   -1.8481    0.0000 O   0  0  0  0  0  0  0  0  0  0  0  0
    2.5981    1.5000    0.0000 C   0  0  0  0  0  0  0  0  0  0  0  0
    0.5490    2.0490    0.0000 N   0  0  0  0  0  0  0  0  0  0  0  0
    1.2990    3.3481    0.0000 C   0  0  0  0  0  0  0  0  0  0  0  0
    0.5490    4.6471    0.0000 C   0  0  0  0  0  0  0  0  0  0  0  0
   -0.9510    4.6471    0.0000 O   0  0  0  0  0  0  0  0  0  0  0  0
    1.2990    5.9462    0.0000 O   0  0  0  0  0  0  0  0  0  0  0  0
   -0.9510    2.0490    0.0000 C   0  0  0  0  0  0  0  0  0  0  0  0
   -1.7010    0.7500    0.0000 C   0  0  0  0  0  0  0  0  0  0  0  0
   -0.9510   -0.5490    0.0000 O   0  0  0  0  0  0  0  0  0  0  0  0
   -3.2010    0.7500    0.0000 O   0  0  0  0  0  0  0  0  0  0  0  0
  1  2  1  0
  2  3  1  0
  3  4  1  0
  4  5  1  0
  5  6  1  0
  6  7  2  0
  6  8  1  0
  4  9  1  0
  9 10  1  0
 10 11  2  0
 10 12  1  0
  2 13  1  0
  2 14  1  0
 14 15  1  0
 15 16  1  0
 16 17  2  0
 16 18  1  0
 14 19  1  0
 19 20  1  0
 20 21  2  0
 20 22  1  0
M  END
>  <Name>  (28) 
(1,1-Dimethylethylene)dinitrilotetraacetic_acid

>  <logK_Eu_z=3.0_T=20_I=0.1>  (28) 
17.14

$$$$

     RDKit          2D

 22 21  0  0  0  0  0  0  0  0999 V2000
    0.0000    0.0000    0.0000 C   0  0  0  0  0  0  0  0  0  0  0  0
    1.2990    0.7500    0.0000 C   0  0  0  0  0  0  0  0  0  0  0  0
    1.2990    2.2500    0.0000 N   0  0  0  0  0  0  0  0  0  0  0  0
    2.5981    3.0000    0.0000 C   0  0  0  0  0  0  0  0  0  0  0  0
    2.5981    4.5000    0.0000 C   0  0  0  0  0  0  0  0  0  0  0  0
    3.8971    5.2500    0.0000 O   0  0  0  0  0  0  0  0  0  0  0  0
    1.2990    5.2500    0.0000 O   0  0  0  0  0  0  0  0  0  0  0  0
   -0.0000    3.0000    0.0000 C   0  0  0  0  0  0  0  0  0  0  0  0
   -1.2990    2.2500    0.0000 C   0  0  0  0  0  0  0  0  0  0  0  0
   -2.5981    3.0000    0.0000 O   0  0  0  0  0  0  0  0  0  0  0  0
   -1.2990    0.7500    0.0000 O   0  0  0  0  0  0  0  0  0  0  0  0
    2.5981   -0.0000    0.0000 C   0  0  0  0  0  0  0  0  0  0  0  0
    2.5981   -1.5000    0.0000 N   0  0  0  0  0  0  0  0  0  0  0  0
    3.8971   -2.2500    0.0000 C   0  0  0  0  0  0  0  0  0  0  0  0
    5.1962   -1.5000    0.0000 C   0  0  0  0  0  0  0  0  0  0  0  0
    6.4952   -2.2500    0.0000 O   0  0  0  0  0  0  0  0  0  0  0  0
    5.1962    0.0000    0.0000 O   0  0  0  0  0  0  0  0  0  0  0  0
    1.2990   -2.2500    0.0000 C   0  0  0  0  0  0  0  0  0  0  0  0
    1.2990   -3.7500    0.0000 C   0  0  0  0  0  0  0  0  0  0  0  0
   -0.0000   -4.5000    0.0000 O   0  0  0  0  0  0  0  0  0  0  0  0
    2.5981   -4.5000    0.0000 O   0  0  0  0  0  0  0  0  0  0  0  0
    3.8971    0.7500    0.0000 C   0  0  0  0  0  0  0  0  0  0  0  0
  1  2  1  0
  2  3  1  0
  3  4  1  0
  4  5  1  0
  5  6  1  0
  5  7  2  0
  3  8  1  0
  8  9  1  0
  9 10  1  0
  9 11  2  0
  2 12  1  0
 12 13  1  0
 13 14  1  0
 14 15  1  0
 15 16  1  0
 15 17  2  0
 13 18  1  0
 18 19  1  0
 19 20  1  0
 19 21  2  0
 12 22  1  0
M  END
>  <Name>  (29) 
rac-(1,2-Dimethylethylene)dinitrilotetraacetic_acid

>  <logK_Eu_z=3.0_T=20_I=0.1>  (29) 
18.54

$$$$

     RDKit          2D

 24 24  0  0  0  0  0  0  0  0999 V2000
    3.7500   -3.8971    0.0000 O   0  0  0  0  0  0  0  0  0  0  0  0
    3.0000   -2.5981    0.0000 C   0  0  0  0  0  0  0  0  0  0  0  0
    1.5000   -2.5981    0.0000 O   0  0  0  0  0  0  0  0  0  0  0  0
    3.7500   -1.2990    0.0000 C   0  0  0  0  0  0  0  0  0  0  0  0
    3.0000    0.0000    0.0000 N   0  0  0  0  0  0  0  0  0  0  0  0
    3.7500    1.2990    0.0000 C   0  0  0  0  0  0  0  0  0  0  0  0
    5.2500    1.2990    0.0000 C   0  0  0  0  0  0  0  0  0  0  0  0
    6.0000    2.5981    0.0000 O   0  0  0  0  0  0  0  0  0  0  0  0
    6.0000    0.0000    0.0000 O   0  0  0  0  0  0  0  0  0  0  0  0
    1.5000    0.0000    0.0000 C   0  0  0  0  0  0  0  0  0  0  0  0
    0.7500   -1.2990    0.0000 C   0  0  0  0  0  0  0  0  0  0  0  0
   -0.7500   -1.2990    0.0000 C   0  0  0  0  0  0  0  0  0  0  0  0
   -1.5000    0.0000    0.0000 C   0  0  0  0  0  0  0  0  0  0  0  0
   -0.7500    1.2990    0.0000 C   0  0  0  0  0  0  0  0  0  0  0  0
    0.7500    1.2990    0.0000 C   0  0  0  0  0  0  0  0  0  0  0  0
    1.5000    2.5981    0.0000 N   0  0  0  0  0  0  0  0  0  0  0  0
    0.7500    3.8971    0.0000 C   0  0  0  0  0  0  0  0  0  0  0  0
   -0.7500    3.8971    0.0000 C   0  0  0  0  0  0  0  0  0  0  0  0
   -1.5000    5.1962    0.0000 O   0  0  0  0  0  0  0  0  0  0  0  0
   -1.5000    2.5981    0.0000 O   0  0  0  0  0  0  0  0  0  0  0  0
    3.0000    2.5981    0.0000 C   0  0  0  0  0  0  0  0  0  0  0  0
    3.7500    3.8971    0.0000 C   0  0  0  0  0  0  0  0  0  0  0  0
    5.2500    3.8971    0.0000 O   0  0  0  0  0  0  0  0  0  0  0  0
    3.0000    5.1962    0.0000 O   0  0  0  0  0  0  0  0  0  0  0  0
  1  2  1  0
  2  3  2  0
  2  4  1  0
  4  5  1  0
  5  6  1  0
  6  7  1  0
  7  8  1  0
  7  9  2  0
  5 10  1  0
 10 11  1  0
 11 12  1  0
 12 13  1  0
 13 14  1  0
 14 15  1  0
 15 16  1  0
 16 17  1  0
 17 18  1  0
 18 19  1  0
 18 20  2  0
 16 21  1  0
 21 22  1  0
 22 23  1  0
 22 24  2  0
 15 10  1  0
M  END
>  <Name>  (30) 
trans-1,2-Cyclohexylenedinitrilotetraacetic_acid_(CDTA)

>  <logK_Eu_z=3.0_T=20_I=0.1>  (30) 
19.4

>  <logK_Eu_z=3.0_T=25_I=0.5>  (30) 
18.8

$$$$

     RDKit          2D

 21 20  0  0  0  0  0  0  0  0999 V2000
    1.2990    0.7500    0.0000 C   0  0  0  0  0  0  0  0  0  0  0  0
    2.5981   -0.0000    0.0000 O   0  0  0  0  0  0  0  0  0  0  0  0
    1.2990    2.2500    0.0000 O   0  0  0  0  0  0  0  0  0  0  0  0
    0.0000    0.0000    0.0000 C   0  0  0  0  0  0  0  0  0  0  0  0
   -1.2990    0.7500    0.0000 N   0  0  0  0  0  0  0  0  0  0  0  0
   -2.5981    0.0000    0.0000 C   0  0  0  0  0  0  0  0  0  0  0  0
   -3.8971    0.7500    0.0000 C   0  0  0  0  0  0  0  0  0  0  0  0
   -5.1962    0.0000    0.0000 C   0  0  0  0  0  0  0  0  0  0  0  0
   -6.4952    0.7500    0.0000 N   0  0  0  0  0  0  0  0  0  0  0  0
   -7.7942    0.0000    0.0000 C   0  0  0  0  0  0  0  0  0  0  0  0
   -7.7942   -1.5000    0.0000 C   0  0  0  0  0  0  0  0  0  0  0  0
   -9.0933   -2.2500    0.0000 O   0  0  0  0  0  0  0  0  0  0  0  0
   -6.4952   -2.2500    0.0000 O   0  0  0  0  0  0  0  0  0  0  0  0
   -6.4952    2.2500    0.0000 C   0  0  0  0  0  0  0  0  0  0  0  0
   -7.7942    3.0000    0.0000 C   0  0  0  0  0  0  0  0  0  0  0  0
   -7.7942    4.5000    0.0000 O   0  0  0  0  0  0  0  0  0  0  0  0
   -9.0933    2.2500    0.0000 O   0  0  0  0  0  0  0  0  0  0  0  0
   -1.2990    2.2500    0.0000 C   0  0  0  0  0  0  0  0  0  0  0  0
   -2.5981    3.0000    0.0000 C   0  0  0  0  0  0  0  0  0  0  0  0
   -2.5981    4.5000    0.0000 O   0  0  0  0  0  0  0  0  0  0  0  0
   -3.8971    2.2500    0.0000 O   0  0  0  0  0  0  0  0  0  0  0  0
  1  2  1  0
  1  3  2  0
  1  4  1  0
  4  5  1  0
  5  6  1  0
  6  7  1  0
  7  8  1  0
  8  9  1  0
  9 10  1  0
 10 11  1  0
 11 12  1  0
 11 13  2  0
  9 14  1  0
 14 15  1  0
 15 16  1  0
 15 17  2  0
  5 18  1  0
 18 19  1  0
 19 20  1  0
 19 21  2  0
M  END
>  <Name>  (31) 
Trimethylenedinitrilotetraacetic_acid_(TMDTA)

>  <logK_Eu_z=3.0_T=25_I=0.1>  (31) 
13.57

>  <logK_Eu_z=3.0_T=20_I=0.1>  (31) 
13.52

>  <logK_Eu_z=3.0_T=25_I=0.5>  (31) 
13.1

$$$$

     RDKit          2D

 22 21  0  0  0  0  0  0  0  0999 V2000
    2.5981   -0.0000    0.0000 O   0  0  0  0  0  0  0  0  0  0  0  0
    1.2990    0.7500    0.0000 C   0  0  0  0  0  0  0  0  0  0  0  0
    0.0000    0.0000    0.0000 C   0  0  0  0  0  0  0  0  0  0  0  0
   -1.2990    0.7500    0.0000 N   0  0  0  0  0  0  0  0  0  0  0  0
   -1.2990    2.2500    0.0000 C   0  0  0  0  0  0  0  0  0  0  0  0
   -2.5981    3.0000    0.0000 C   0  0  0  0  0  0  0  0  0  0  0  0
   -3.8971    2.2500    0.0000 O   0  0  0  0  0  0  0  0  0  0  0  0
   -2.5981    4.5000    0.0000 O   0  0  0  0  0  0  0  0  0  0  0  0
   -2.5981    0.0000    0.0000 C   0  0  0  0  0  0  0  0  0  0  0  0
   -3.8971    0.7500    0.0000 C   0  0  0  0  0  0  0  0  0  0  0  0
   -5.1962    0.0000    0.0000 C   0  0  0  0  0  0  0  0  0  0  0  0
   -6.4952    0.7500    0.0000 C   0  0  0  0  0  0  0  0  0  0  0  0
   -7.7942    0.0000    0.0000 N   0  0  0  0  0  0  0  0  0  0  0  0
   -9.0933    0.7500    0.0000 C   0  0  0  0  0  0  0  0  0  0  0  0
  -10.3923    0.0000    0.0000 C   0  0  0  0  0  0  0  0  0  0  0  0
  -10.3923   -1.5000    0.0000 O   0  0  0  0  0  0  0  0  0  0  0  0
  -11.6913    0.7500    0.0000 O   0  0  0  0  0  0  0  0  0  0  0  0
   -7.7942   -1.5000    0.0000 C   0  0  0  0  0  0  0  0  0  0  0  0
   -6.4952   -2.2500    0.0000 C   0  0  0  0  0  0  0  0  0  0  0  0
   -5.1962   -1.5000    0.0000 O   0  0  0  0  0  0  0  0  0  0  0  0
   -6.4952   -3.7500    0.0000 O   0  0  0  0  0  0  0  0  0  0  0  0
    1.2990    2.2500    0.0000 O   0  0  0  0  0  0  0  0  0  0  0  0
  1  2  1  0
  2  3  1  0
  3  4  1  0
  4  5  1  0
  5  6  1  0
  6  7  2  0
  6  8  1  0
  4  9  1  0
  9 10  1  0
 10 11  1  0
 11 12  1  0
 12 13  1  0
 13 14  1  0
 14 15  1  0
 15 16  2  0
 15 17  1  0
 13 18  1  0
 18 19  1  0
 19 20  2  0
 19 21  1  0
  2 22  2  0
M  END
>  <Name>  (32) 
Tetramethylenedinitrilotetraacetic_acid

>  <logK_Eu_z=3.0_T=25_I=0.5>  (32) 
9.83

$$$$

     RDKit          2D

 23 22  0  0  0  0  0  0  0  0999 V2000
    2.5981   -0.0000    0.0000 O   0  0  0  0  0  0  0  0  0  0  0  0
    1.2990    0.7500    0.0000 C   0  0  0  0  0  0  0  0  0  0  0  0
    0.0000    0.0000    0.0000 C   0  0  0  0  0  0  0  0  0  0  0  0
   -1.2990    0.7500    0.0000 N   0  0  0  0  0  0  0  0  0  0  0  0
   -1.2990    2.2500    0.0000 C   0  0  0  0  0  0  0  0  0  0  0  0
   -2.5981    3.0000    0.0000 C   0  0  0  0  0  0  0  0  0  0  0  0
   -3.8971    2.2500    0.0000 O   0  0  0  0  0  0  0  0  0  0  0  0
   -2.5981    4.5000    0.0000 O   0  0  0  0  0  0  0  0  0  0  0  0
   -2.5981    0.0000    0.0000 C   0  0  0  0  0  0  0  0  0  0  0  0
   -3.8971    0.7500    0.0000 C   0  0  0  0  0  0  0  0  0  0  0  0
   -5.1962    0.0000    0.0000 C   0  0  0  0  0  0  0  0  0  0  0  0
   -6.4952    0.7500    0.0000 C   0  0  0  0  0  0  0  0  0  0  0  0
   -7.7942    0.0000    0.0000 C   0  0  0  0  0  0  0  0  0  0  0  0
   -9.0933    0.7500    0.0000 N   0  0  0  0  0  0  0  0  0  0  0  0
  -10.3923    0.0000    0.0000 C   0  0  0  0  0  0  0  0  0  0  0  0
  -11.6913    0.7500    0.0000 C   0  0  0  0  0  0  0  0  0  0  0  0
  -11.6913    2.2500    0.0000 O   0  0  0  0  0  0  0  0  0  0  0  0
  -12.9904    0.0000    0.0000 O   0  0  0  0  0  0  0  0  0  0  0  0
   -9.0933    2.2500    0.0000 C   0  0  0  0  0  0  0  0  0  0  0  0
   -7.7942    3.0000    0.0000 C   0  0  0  0  0  0  0  0  0  0  0  0
   -6.4952    2.2500    0.0000 O   0  0  0  0  0  0  0  0  0  0  0  0
   -7.7942    4.5000    0.0000 O   0  0  0  0  0  0  0  0  0  0  0  0
    1.2990    2.2500    0.0000 O   0  0  0  0  0  0  0  0  0  0  0  0
  1  2  1  0
  2  3  1  0
  3  4  1  0
  4  5  1  0
  5  6  1  0
  6  7  2  0
  6  8  1  0
  4  9  1  0
  9 10  1  0
 10 11  1  0
 11 12  1  0
 12 13  1  0
 13 14  1  0
 14 15  1  0
 15 16  1  0
 16 17  2  0
 16 18  1  0
 14 19  1  0
 19 20  1  0
 20 21  2  0
 20 22  1  0
  2 23  2  0
M  END
>  <Name>  (33) 
Pentamethylenedinitrilotetraacetic_acid

>  <logK_Eu_z=3.0_T=25_I=0.1>  (33) 
10.46

$$$$

     RDKit          2D

 24 23  0  0  0  0  0  0  0  0999 V2000
    0.0000    0.0000    0.0000 C   0  0  0  0  0  0  0  0  0  0  0  0
   -1.2990    0.7500    0.0000 C   0  0  0  0  0  0  0  0  0  0  0  0
   -2.5981    0.0000    0.0000 C   0  0  0  0  0  0  0  0  0  0  0  0
   -3.8971    0.7500    0.0000 N   0  0  0  0  0  0  0  0  0  0  0  0
   -5.1962    0.0000    0.0000 C   0  0  0  0  0  0  0  0  0  0  0  0
   -6.4952    0.7500    0.0000 C   0  0  0  0  0  0  0  0  0  0  0  0
   -7.7942    0.0000    0.0000 O   0  0  0  0  0  0  0  0  0  0  0  0
   -6.4952    2.2500    0.0000 O   0  0  0  0  0  0  0  0  0  0  0  0
   -3.8971    2.2500    0.0000 C   0  0  0  0  0  0  0  0  0  0  0  0
   -2.5981    3.0000    0.0000 C   0  0  0  0  0  0  0  0  0  0  0  0
   -1.2990    2.2500    0.0000 O   0  0  0  0  0  0  0  0  0  0  0  0
   -2.5981    4.5000    0.0000 O   0  0  0  0  0  0  0  0  0  0  0  0
    1.2990    0.7500    0.0000 C   0  0  0  0  0  0  0  0  0  0  0  0
    2.5981   -0.0000    0.0000 C   0  0  0  0  0  0  0  0  0  0  0  0
    3.8971    0.7500    0.0000 C   0  0  0  0  0  0  0  0  0  0  0  0
    5.1962   -0.0000    0.0000 N   0  0  0  0  0  0  0  0  0  0  0  0
    6.4952    0.7500    0.0000 C   0  0  0  0  0  0  0  0  0  0  0  0
    7.7942   -0.0000    0.0000 C   0  0  0  0  0  0  0  0  0  0  0  0
    9.0933    0.7500    0.0000 O   0  0  0  0  0  0  0  0  0  0  0  0
    7.7942   -1.5000    0.0000 O   0  0  0  0  0  0  0  0  0  0  0  0
    5.1962   -1.5000    0.0000 C   0  0  0  0  0  0  0  0  0  0  0  0
    3.8971   -2.2500    0.0000 C   0  0  0  0  0  0  0  0  0  0  0  0
    3.8971   -3.7500    0.0000 O   0  0  0  0  0  0  0  0  0  0  0  0
    2.5981   -1.5000    0.0000 O   0  0  0  0  0  0  0  0  0  0  0  0
  1  2  1  0
  2  3  1  0
  3  4  1  0
  4  5  1  0
  5  6  1  0
  6  7  1  0
  6  8  2  0
  4  9  1  0
  9 10  1  0
 10 11  1  0
 10 12  2  0
  1 13  1  0
 13 14  1  0
 14 15  1  0
 15 16  1  0
 16 17  1  0
 17 18  1  0
 18 19  1  0
 18 20  2  0
 16 21  1  0
 21 22  1  0
 22 23  1  0
 22 24  2  0
M  END
>  <Name>  (34) 
Hexamethylenedinitrilotetraacetic_acid

>  <logK_Eu_z=3.0_T=25_I=1.0>  (34) 
9.21

$$$$

     RDKit          2D

 23 22  0  0  0  0  0  0  0  0999 V2000
    1.2990    2.2500    0.0000 C   0  0  0  0  0  0  0  0  0  0  0  0
    1.2990    0.7500    0.0000 C   0  0  0  0  0  0  0  0  0  0  0  0
    2.5981   -0.0000    0.0000 C   0  0  0  0  0  0  0  0  0  0  0  0
    3.8971    0.7500    0.0000 C   0  0  0  0  0  0  0  0  0  0  0  0
    5.1962   -0.0000    0.0000 C   0  0  0  0  0  0  0  0  0  0  0  0
    3.8971    2.2500    0.0000 N   0  0  0  0  0  0  0  0  0  0  0  0
    2.5981    3.0000    0.0000 C   0  0  0  0  0  0  0  0  0  0  0  0
    2.5981    4.5000    0.0000 C   0  0  0  0  0  0  0  0  0  0  0  0
    3.8971    5.2500    0.0000 O   0  0  0  0  0  0  0  0  0  0  0  0
    1.2990    5.2500    0.0000 O   0  0  0  0  0  0  0  0  0  0  0  0
    5.1962    3.0000    0.0000 C   0  0  0  0  0  0  0  0  0  0  0  0
    6.4952    2.2500    0.0000 C   0  0  0  0  0  0  0  0  0  0  0  0
    6.4952    0.7500    0.0000 O   0  0  0  0  0  0  0  0  0  0  0  0
    7.7942    3.0000    0.0000 O   0  0  0  0  0  0  0  0  0  0  0  0
   -0.0000   -0.0000    0.0000 N   0  0  0  0  0  0  0  0  0  0  0  0
   -1.2990    0.7500    0.0000 C   0  0  0  0  0  0  0  0  0  0  0  0
   -1.2990    2.2500    0.0000 C   0  0  0  0  0  0  0  0  0  0  0  0
   -0.0000    3.0000    0.0000 O   0  0  0  0  0  0  0  0  0  0  0  0
   -2.5981    3.0000    0.0000 O   0  0  0  0  0  0  0  0  0  0  0  0
    0.0000   -1.5000    0.0000 C   0  0  0  0  0  0  0  0  0  0  0  0
   -1.2990   -2.2500    0.0000 C   0  0  0  0  0  0  0  0  0  0  0  0
   -2.5981   -1.5000    0.0000 O   0  0  0  0  0  0  0  0  0  0  0  0
   -1.2990   -3.7500    0.0000 O   0  0  0  0  0  0  0  0  0  0  0  0
  1  2  1  0
  2  3  1  0
  3  4  1  0
  4  5  1  0
  4  6  1  0
  6  7  1  0
  7  8  1  0
  8  9  2  0
  8 10  1  0
  6 11  1  0
 11 12  1  0
 12 13  2  0
 12 14  1  0
  2 15  1  0
 15 16  1  0
 16 17  1  0
 17 18  2  0
 17 19  1  0
 15 20  1  0
 20 21  1  0
 21 22  2  0
 21 23  1  0
M  END
>  <Name>  (35) 
rac-(1,3-Dimethyltrimethylene)dinitrilotetraacetic_acid

>  <logK_Eu_z=3.0_T=20_I=0.1>  (35) 
12.03

$$$$

     RDKit          2D

 22 21  0  0  0  0  0  0  0  0999 V2000
   -0.0000   -1.5000    0.0000 C   0  0  0  0  0  0  0  0  0  0  0  0
    1.2990   -2.2500    0.0000 O   0  0  0  0  0  0  0  0  0  0  0  0
   -1.2990   -2.2500    0.0000 O   0  0  0  0  0  0  0  0  0  0  0  0
    0.0000    0.0000    0.0000 C   0  0  0  0  0  0  0  0  0  0  0  0
   -1.2990    0.7500    0.0000 N   0  0  0  0  0  0  0  0  0  0  0  0
   -2.5981    0.0000    0.0000 C   0  0  0  0  0  0  0  0  0  0  0  0
   -3.8971    0.7500    0.0000 C   0  0  0  0  0  0  0  0  0  0  0  0
   -3.8971    2.2500    0.0000 O   0  0  0  0  0  0  0  0  0  0  0  0
   -5.1962    0.0000    0.0000 C   0  0  0  0  0  0  0  0  0  0  0  0
   -6.4952    0.7500    0.0000 N   0  0  0  0  0  0  0  0  0  0  0  0
   -7.7942    0.0000    0.0000 C   0  0  0  0  0  0  0  0  0  0  0  0
   -7.7942   -1.5000    0.0000 C   0  0  0  0  0  0  0  0  0  0  0  0
   -9.0933   -2.2500    0.0000 O   0  0  0  0  0  0  0  0  0  0  0  0
   -6.4952   -2.2500    0.0000 O   0  0  0  0  0  0  0  0  0  0  0  0
   -6.4952    2.2500    0.0000 C   0  0  0  0  0  0  0  0  0  0  0  0
   -7.7942    3.0000    0.0000 C   0  0  0  0  0  0  0  0  0  0  0  0
   -7.7942    4.5000    0.0000 O   0  0  0  0  0  0  0  0  0  0  0  0
   -9.0933    2.2500    0.0000 O   0  0  0  0  0  0  0  0  0  0  0  0
   -1.2990    2.2500    0.0000 C   0  0  0  0  0  0  0  0  0  0  0  0
    0.0000    3.0000    0.0000 C   0  0  0  0  0  0  0  0  0  0  0  0
    0.0000    4.5000    0.0000 O   0  0  0  0  0  0  0  0  0  0  0  0
    1.2990    2.2500    0.0000 O   0  0  0  0  0  0  0  0  0  0  0  0
  1  2  1  0
  1  3  2  0
  1  4  1  0
  4  5  1  0
  5  6  1  0
  6  7  1  0
  7  8  1  0
  7  9  1  0
  9 10  1  0
 10 11  1  0
 11 12  1  0
 12 13  1  0
 12 14  2  0
 10 15  1  0
 15 16  1  0
 16 17  1  0
 16 18  2  0
  5 19  1  0
 19 20  1  0
 20 21  1  0
 20 22  2  0
M  END
>  <Name>  (36) 
(2-Hydroxytrimethylene)dinitrilotetraacetic_acid

>  <logK_Eu_z=3.0_T=25_I=0.1>  (36) 
13.96

$$$$

     RDKit          2D

 25 24  0  0  0  0  0  0  0  0999 V2000
   -1.2990    0.7500    0.0000 O   0  0  0  0  0  0  0  0  0  0  0  0
    0.0000    0.0000    0.0000 C   0  0  0  0  0  0  0  0  0  0  0  0
    1.2990    0.7500    0.0000 C   0  0  0  0  0  0  0  0  0  0  0  0
    2.5981   -0.0000    0.0000 C   0  0  0  0  0  0  0  0  0  0  0  0
    3.8971    0.7500    0.0000 N   0  0  0  0  0  0  0  0  0  0  0  0
    5.1962   -0.0000    0.0000 C   0  0  0  0  0  0  0  0  0  0  0  0
    6.4952    0.7500    0.0000 C   0  0  0  0  0  0  0  0  0  0  0  0
    6.4952    2.2500    0.0000 O   0  0  0  0  0  0  0  0  0  0  0  0
    7.7942   -0.0000    0.0000 O   0  0  0  0  0  0  0  0  0  0  0  0
    3.8971    2.2500    0.0000 C   0  0  0  0  0  0  0  0  0  0  0  0
    2.5981    3.0000    0.0000 C   0  0  0  0  0  0  0  0  0  0  0  0
    2.5981    4.5000    0.0000 O   0  0  0  0  0  0  0  0  0  0  0  0
    1.2990    2.2500    0.0000 O   0  0  0  0  0  0  0  0  0  0  0  0
   -2.5981    0.0000    0.0000 C   0  0  0  0  0  0  0  0  0  0  0  0
   -3.8971    0.7500    0.0000 C   0  0  0  0  0  0  0  0  0  0  0  0
   -5.1962    0.0000    0.0000 C   0  0  0  0  0  0  0  0  0  0  0  0
   -6.4952    0.7500    0.0000 N   0  0  0  0  0  0  0  0  0  0  0  0
   -7.7942    0.0000    0.0000 C   0  0  0  0  0  0  0  0  0  0  0  0
   -9.0933    0.7500    0.0000 C   0  0  0  0  0  0  0  0  0  0  0  0
   -9.0933    2.2500    0.0000 O   0  0  0  0  0  0  0  0  0  0  0  0
  -10.3923    0.0000    0.0000 O   0  0  0  0  0  0  0  0  0  0  0  0
   -6.4952    2.2500    0.0000 C   0  0  0  0  0  0  0  0  0  0  0  0
   -5.1962    3.0000    0.0000 C   0  0  0  0  0  0  0  0  0  0  0  0
   -5.1962    4.5000    0.0000 O   0  0  0  0  0  0  0  0  0  0  0  0
   -3.8971    2.2500    0.0000 O   0  0  0  0  0  0  0  0  0  0  0  0
  1  2  1  0
  2  3  1  0
  3  4  1  0
  4  5  1  0
  5  6  1  0
  6  7  1  0
  7  8  2  0
  7  9  1  0
  5 10  1  0
 10 11  1  0
 11 12  2  0
 11 13  1  0
  1 14  1  0
 14 15  1  0
 15 16  1  0
 16 17  1  0
 17 18  1  0
 18 19  1  0
 19 20  2  0
 19 21  1  0
 17 22  1  0
 22 23  1  0
 23 24  2  0
 23 25  1  0
M  END
>  <Name>  (37) 
Oxybis(trimethylenenitrilo)tetraacetic_acid

>  <logK_Eu_z=3.0_T=25_I=0.1>  (37) 
11.82

$$$$

     RDKit          2D

 26 25  0  0  0  0  0  0  0  0999 V2000
    2.5981   -0.0000    0.0000 O   0  0  0  0  0  0  0  0  0  0  0  0
    1.2990    0.7500    0.0000 C   0  0  0  0  0  0  0  0  0  0  0  0
    0.0000    0.0000    0.0000 C   0  0  0  0  0  0  0  0  0  0  0  0
   -1.2990    0.7500    0.0000 N   0  0  0  0  0  0  0  0  0  0  0  0
   -1.2990    2.2500    0.0000 C   0  0  0  0  0  0  0  0  0  0  0  0
   -2.5981    3.0000    0.0000 C   0  0  0  0  0  0  0  0  0  0  0  0
   -3.8971    2.2500    0.0000 O   0  0  0  0  0  0  0  0  0  0  0  0
   -2.5981    4.5000    0.0000 O   0  0  0  0  0  0  0  0  0  0  0  0
   -2.5981    0.0000    0.0000 C   0  0  0  0  0  0  0  0  0  0  0  0
   -3.8971    0.7500    0.0000 C   0  0  0  0  0  0  0  0  0  0  0  0
   -5.1962    0.0000    0.0000 O   0  0  0  0  0  0  0  0  0  0  0  0
   -6.4952    0.7500    0.0000 C   0  0  0  0  0  0  0  0  0  0  0  0
   -7.7942    0.0000    0.0000 C   0  0  0  0  0  0  0  0  0  0  0  0
   -9.0933    0.7500    0.0000 O   0  0  0  0  0  0  0  0  0  0  0  0
  -10.3923    0.0000    0.0000 C   0  0  0  0  0  0  0  0  0  0  0  0
  -11.6913    0.7500    0.0000 C   0  0  0  0  0  0  0  0  0  0  0  0
  -12.9904    0.0000    0.0000 N   0  0  0  0  0  0  0  0  0  0  0  0
  -14.2894    0.7500    0.0000 C   0  0  0  0  0  0  0  0  0  0  0  0
  -15.5885    0.0000    0.0000 C   0  0  0  0  0  0  0  0  0  0  0  0
  -15.5885   -1.5000    0.0000 O   0  0  0  0  0  0  0  0  0  0  0  0
  -16.8875    0.7500    0.0000 O   0  0  0  0  0  0  0  0  0  0  0  0
  -12.9904   -1.5000    0.0000 C   0  0  0  0  0  0  0  0  0  0  0  0
  -11.6913   -2.2500    0.0000 C   0  0  0  0  0  0  0  0  0  0  0  0
  -10.3923   -1.5000    0.0000 O   0  0  0  0  0  0  0  0  0  0  0  0
  -11.6913   -3.7500    0.0000 O   0  0  0  0  0  0  0  0  0  0  0  0
    1.2990    2.2500    0.0000 O   0  0  0  0  0  0  0  0  0  0  0  0
  1  2  1  0
  2  3  1  0
  3  4  1  0
  4  5  1  0
  5  6  1  0
  6  7  2  0
  6  8  1  0
  4  9  1  0
  9 10  1  0
 10 11  1  0
 11 12  1  0
 12 13  1  0
 13 14  1  0
 14 15  1  0
 15 16  1  0
 16 17  1  0
 17 18  1  0
 18 19  1  0
 19 20  2  0
 19 21  1  0
 17 22  1  0
 22 23  1  0
 23 24  2  0
 23 25  1  0
  2 26  2  0
M  END
>  <Name>  (38) 
Ethylenebis(oxyethylenenitrilo)tetraacetic_acid_(EGTA)

>  <logK_Eu_z=3.0_T=20_I=0.1>  (38) 
17.5

$$$$

     RDKit          2D

 23 22  0  0  0  0  0  0  0  0999 V2000
   -1.2990    0.7500    0.0000 S   0  0  0  0  0  0  0  0  0  0  0  0
    0.0000    0.0000    0.0000 C   0  0  0  0  0  0  0  0  0  0  0  0
    1.2990    0.7500    0.0000 C   0  0  0  0  0  0  0  0  0  0  0  0
    2.5981   -0.0000    0.0000 N   0  0  0  0  0  0  0  0  0  0  0  0
    3.8971    0.7500    0.0000 C   0  0  0  0  0  0  0  0  0  0  0  0
    5.1962   -0.0000    0.0000 C   0  0  0  0  0  0  0  0  0  0  0  0
    5.1962   -1.5000    0.0000 O   0  0  0  0  0  0  0  0  0  0  0  0
    6.4952    0.7500    0.0000 O   0  0  0  0  0  0  0  0  0  0  0  0
    2.5981   -1.5000    0.0000 C   0  0  0  0  0  0  0  0  0  0  0  0
    1.2990   -2.2500    0.0000 C   0  0  0  0  0  0  0  0  0  0  0  0
    0.0000   -1.5000    0.0000 O   0  0  0  0  0  0  0  0  0  0  0  0
    1.2990   -3.7500    0.0000 O   0  0  0  0  0  0  0  0  0  0  0  0
   -2.5981    0.0000    0.0000 C   0  0  0  0  0  0  0  0  0  0  0  0
   -3.8971    0.7500    0.0000 C   0  0  0  0  0  0  0  0  0  0  0  0
   -5.1962    0.0000    0.0000 N   0  0  0  0  0  0  0  0  0  0  0  0
   -6.4952    0.7500    0.0000 C   0  0  0  0  0  0  0  0  0  0  0  0
   -7.7942    0.0000    0.0000 C   0  0  0  0  0  0  0  0  0  0  0  0
   -7.7942   -1.5000    0.0000 O   0  0  0  0  0  0  0  0  0  0  0  0
   -9.0933    0.7500    0.0000 O   0  0  0  0  0  0  0  0  0  0  0  0
   -5.1962   -1.5000    0.0000 C   0  0  0  0  0  0  0  0  0  0  0  0
   -3.8971   -2.2500    0.0000 C   0  0  0  0  0  0  0  0  0  0  0  0
   -2.5981   -1.5000    0.0000 O   0  0  0  0  0  0  0  0  0  0  0  0
   -3.8971   -3.7500    0.0000 O   0  0  0  0  0  0  0  0  0  0  0  0
  1  2  1  0
  2  3  1  0
  3  4  1  0
  4  5  1  0
  5  6  1  0
  6  7  2  0
  6  8  1  0
  4  9  1  0
  9 10  1  0
 10 11  2  0
 10 12  1  0
  1 13  1  0
 13 14  1  0
 14 15  1  0
 15 16  1  0
 16 17  1  0
 17 18  2  0
 17 19  1  0
 15 20  1  0
 20 21  1  0
 21 22  2  0
 21 23  1  0
M  END
>  <Name>  (39) 
Thiobis(ethylenenitrilo)tetraacetic_acid_(TEDTA)

>  <logK_Eu_z=3.0_T=25_I=0.1>  (39) 
14.82

$$$$

     RDKit          2D

 25 24  0  0  0  0  0  0  0  0999 V2000
    1.2990    0.7500    0.0000 C   0  0  0  0  0  0  0  0  0  0  0  0
    0.0000    0.0000    0.0000 C   0  0  0  0  0  0  0  0  0  0  0  0
    2.5981   -0.0000    0.0000 N   0  0  0  0  0  0  0  0  0  0  0  0
    3.8971    0.7500    0.0000 C   0  0  0  0  0  0  0  0  0  0  0  0
    5.1962   -0.0000    0.0000 C   0  0  0  0  0  0  0  0  0  0  0  0
    6.4952    0.7500    0.0000 N   0  0  0  0  0  0  0  0  0  0  0  0
    7.7942   -0.0000    0.0000 C   0  0  0  0  0  0  0  0  0  0  0  0
    9.0933    0.7500    0.0000 C   0  0  0  0  0  0  0  0  0  0  0  0
    9.0933    2.2500    0.0000 O   0  0  0  0  0  0  0  0  0  0  0  0
   10.3923   -0.0000    0.0000 O   0  0  0  0  0  0  0  0  0  0  0  0
    6.4952    2.2500    0.0000 C   0  0  0  0  0  0  0  0  0  0  0  0
    5.1962    3.0000    0.0000 C   0  0  0  0  0  0  0  0  0  0  0  0
    3.8971    2.2500    0.0000 O   0  0  0  0  0  0  0  0  0  0  0  0
    5.1962    4.5000    0.0000 O   0  0  0  0  0  0  0  0  0  0  0  0
    2.5981   -1.5000    0.0000 C   0  0  0  0  0  0  0  0  0  0  0  0
    3.8971   -2.2500    0.0000 C   0  0  0  0  0  0  0  0  0  0  0  0
    3.8971   -3.7500    0.0000 N   0  0  0  0  0  0  0  0  0  0  0  0
    5.1962   -4.5000    0.0000 C   0  0  0  0  0  0  0  0  0  0  0  0
    5.1962   -6.0000    0.0000 C   0  0  0  0  0  0  0  0  0  0  0  0
    3.8971   -6.7500    0.0000 O   0  0  0  0  0  0  0  0  0  0  0  0
    6.4952   -6.7500    0.0000 O   0  0  0  0  0  0  0  0  0  0  0  0
    2.5981   -4.5000    0.0000 C   0  0  0  0  0  0  0  0  0  0  0  0
    1.2990   -3.7500    0.0000 C   0  0  0  0  0  0  0  0  0  0  0  0
    1.2990   -2.2500    0.0000 O   0  0  0  0  0  0  0  0  0  0  0  0
    0.0000   -4.5000    0.0000 O   0  0  0  0  0  0  0  0  0  0  0  0
  1  2  1  0
  1  3  1  0
  3  4  1  0
  4  5  1  0
  5  6  1  0
  6  7  1  0
  7  8  1  0
  8  9  2  0
  8 10  1  0
  6 11  1  0
 11 12  1  0
 12 13  2  0
 12 14  1  0
  3 15  1  0
 15 16  1  0
 16 17  1  0
 17 18  1  0
 18 19  1  0
 19 20  2  0
 19 21  1  0
 17 22  1  0
 22 23  1  0
 23 24  2  0
 23 25  1  0
M  END
>  <Name>  (40) 
N-Ethyliminobis(ethylenenitrilo)tetraacetic_acid

>  <logK_Eu_z=3.0_T=25_I=0.1>  (40) 
17.82

$$$$

     RDKit          2D

 29 29  0  0  0  0  0  0  0  0999 V2000
    7.5000   -5.1962    0.0000 O   0  0  0  0  0  0  0  0  0  0  0  0
    8.2500   -3.8971    0.0000 C   0  0  0  0  0  0  0  0  0  0  0  0
    7.5000   -2.5981    0.0000 C   0  0  0  0  0  0  0  0  0  0  0  0
    6.0000   -2.5981    0.0000 N   0  0  0  0  0  0  0  0  0  0  0  0
    5.2500   -3.8971    0.0000 C   0  0  0  0  0  0  0  0  0  0  0  0
    3.7500   -3.8971    0.0000 C   0  0  0  0  0  0  0  0  0  0  0  0
    3.0000   -2.5981    0.0000 O   0  0  0  0  0  0  0  0  0  0  0  0
    3.0000   -5.1962    0.0000 O   0  0  0  0  0  0  0  0  0  0  0  0
    5.2500   -1.2990    0.0000 C   0  0  0  0  0  0  0  0  0  0  0  0
    3.7500   -1.2990    0.0000 C   0  0  0  0  0  0  0  0  0  0  0  0
    3.0000    0.0000    0.0000 N   0  0  0  0  0  0  0  0  0  0  0  0
    1.5000    0.0000    0.0000 C   0  0  0  0  0  0  0  0  0  0  0  0
    0.7500   -1.2990    0.0000 C   0  0  0  0  0  0  0  0  0  0  0  0
   -0.7500   -1.2990    0.0000 C   0  0  0  0  0  0  0  0  0  0  0  0
   -1.5000    0.0000    0.0000 C   0  0  0  0  0  0  0  0  0  0  0  0
   -0.7500    1.2990    0.0000 C   0  0  0  0  0  0  0  0  0  0  0  0
    0.7500    1.2990    0.0000 C   0  0  0  0  0  0  0  0  0  0  0  0
    3.7500    1.2990    0.0000 C   0  0  0  0  0  0  0  0  0  0  0  0
    5.2500    1.2990    0.0000 C   0  0  0  0  0  0  0  0  0  0  0  0
    6.0000    2.5981    0.0000 N   0  0  0  0  0  0  0  0  0  0  0  0
    7.5000    2.5981    0.0000 C   0  0  0  0  0  0  0  0  0  0  0  0
    8.2500    3.8971    0.0000 C   0  0  0  0  0  0  0  0  0  0  0  0
    7.5000    5.1962    0.0000 O   0  0  0  0  0  0  0  0  0  0  0  0
    9.7500    3.8971    0.0000 O   0  0  0  0  0  0  0  0  0  0  0  0
    5.2500    3.8971    0.0000 C   0  0  0  0  0  0  0  0  0  0  0  0
    3.7500    3.8971    0.0000 C   0  0  0  0  0  0  0  0  0  0  0  0
    3.0000    2.5981    0.0000 O   0  0  0  0  0  0  0  0  0  0  0  0
    3.0000    5.1962    0.0000 O   0  0  0  0  0  0  0  0  0  0  0  0
    9.7500   -3.8971    0.0000 O   0  0  0  0  0  0  0  0  0  0  0  0
  1  2  1  0
  2  3  1  0
  3  4  1  0
  4  5  1  0
  5  6  1  0
  6  7  2  0
  6  8  1  0
  4  9  1  0
  9 10  1  0
 10 11  1  0
 11 12  1  0
 12 13  2  0
 13 14  1  0
 14 15  2  0
 15 16  1  0
 16 17  2  0
 11 18  1  0
 18 19  1  0
 19 20  1  0
 20 21  1  0
 21 22  1  0
 22 23  2  0
 22 24  1  0
 20 25  1  0
 25 26  1  0
 26 27  2  0
 26 28  1  0
  2 29  2  0
 17 12  1  0
M  END
>  <Name>  (41) 
N-Phenyliminobis(ethylenenitrilo)tetraacetic_acid

>  <logK_Eu_z=3.0_T=25_I=0.1>  (41) 
15.71

$$$$

     RDKit          2D

 27 26  0  0  0  0  0  0  0  0999 V2000
    2.5981   -0.0000    0.0000 O   0  0  0  0  0  0  0  0  0  0  0  0
    1.2990    0.7500    0.0000 C   0  0  0  0  0  0  0  0  0  0  0  0
    0.0000    0.0000    0.0000 C   0  0  0  0  0  0  0  0  0  0  0  0
   -1.2990    0.7500    0.0000 N   0  0  0  0  0  0  0  0  0  0  0  0
   -2.5981    0.0000    0.0000 C   0  0  0  0  0  0  0  0  0  0  0  0
   -3.8971    0.7500    0.0000 C   0  0  0  0  0  0  0  0  0  0  0  0
   -5.1962    0.0000    0.0000 N   0  0  0  0  0  0  0  0  0  0  0  0
   -6.4952    0.7500    0.0000 C   0  0  0  0  0  0  0  0  0  0  0  0
   -7.7942    0.0000    0.0000 C   0  0  0  0  0  0  0  0  0  0  0  0
   -7.7942   -1.5000    0.0000 O   0  0  0  0  0  0  0  0  0  0  0  0
   -9.0933    0.7500    0.0000 O   0  0  0  0  0  0  0  0  0  0  0  0
   -5.1962   -1.5000    0.0000 C   0  0  0  0  0  0  0  0  0  0  0  0
   -3.8971   -2.2500    0.0000 C   0  0  0  0  0  0  0  0  0  0  0  0
   -2.5981   -1.5000    0.0000 O   0  0  0  0  0  0  0  0  0  0  0  0
   -3.8971   -3.7500    0.0000 O   0  0  0  0  0  0  0  0  0  0  0  0
   -1.2990    2.2500    0.0000 C   0  0  0  0  0  0  0  0  0  0  0  0
   -2.5981    3.0000    0.0000 C   0  0  0  0  0  0  0  0  0  0  0  0
   -2.5981    4.5000    0.0000 N   0  0  0  0  0  0  0  0  0  0  0  0
   -3.8971    5.2500    0.0000 C   0  0  0  0  0  0  0  0  0  0  0  0
   -3.8971    6.7500    0.0000 C   0  0  0  0  0  0  0  0  0  0  0  0
   -2.5981    7.5000    0.0000 O   0  0  0  0  0  0  0  0  0  0  0  0
   -5.1962    7.5000    0.0000 O   0  0  0  0  0  0  0  0  0  0  0  0
   -1.2990    5.2500    0.0000 C   0  0  0  0  0  0  0  0  0  0  0  0
    0.0000    4.5000    0.0000 C   0  0  0  0  0  0  0  0  0  0  0  0
   -0.0000    3.0000    0.0000 O   0  0  0  0  0  0  0  0  0  0  0  0
    1.2990    5.2500    0.0000 O   0  0  0  0  0  0  0  0  0  0  0  0
    1.2990    2.2500    0.0000 O   0  0  0  0  0  0  0  0  0  0  0  0
  1  2  1  0
  2  3  1  0
  3  4  1  0
  4  5  1  0
  5  6  1  0
  6  7  1  0
  7  8  1  0
  8  9  1  0
  9 10  2  0
  9 11  1  0
  7 12  1  0
 12 13  1  0
 13 14  2  0
 13 15  1  0
  4 16  1  0
 16 17  1  0
 17 18  1  0
 18 19  1  0
 19 20  1  0
 20 21  2  0
 20 22  1  0
 18 23  1  0
 23 24  1  0
 24 25  2  0
 24 26  1  0
  2 27  2  0
M  END
>  <Name>  (42) 
Diethylenetrinitrilopentaacetic_acid_(DTPA)

>  <logK_Eu_z=3.0_T=25_I=0.1>  (42) 
22.39

>  <logK_Eu_z=3.0_T=25_I=0.5>  (42) 
20.87

$$$$

     RDKit          2D

 30 29  0  0  0  0  0  0  0  0999 V2000
    5.1962    7.5000    0.0000 C   0  0  0  0  0  0  0  0  0  0  0  0
    3.8971    8.2500    0.0000 O   0  0  0  0  0  0  0  0  0  0  0  0
    6.4952    8.2500    0.0000 O   0  0  0  0  0  0  0  0  0  0  0  0
    5.1962    6.0000    0.0000 C   0  0  0  0  0  0  0  0  0  0  0  0
    3.8971    5.2500    0.0000 N   0  0  0  0  0  0  0  0  0  0  0  0
    3.8971    3.7500    0.0000 C   0  0  0  0  0  0  0  0  0  0  0  0
    2.5981    3.0000    0.0000 C   0  0  0  0  0  0  0  0  0  0  0  0
    2.5981    1.5000    0.0000 C   0  0  0  0  0  0  0  0  0  0  0  0
    1.2990    0.7500    0.0000 N   0  0  0  0  0  4  0  0  0  0  0  0
    0.0000    0.0000    0.0000 C   0  0  0  0  0  0  0  0  0  0  0  0
    2.0490   -0.5490    0.0000 C   0  0  0  0  0  0  0  0  0  0  0  0
    3.5490   -0.5490    0.0000 C   0  0  0  0  0  0  0  0  0  0  0  0
    4.2990   -1.8481    0.0000 C   0  0  0  0  0  0  0  0  0  0  0  0
    5.7990   -1.8481    0.0000 N   0  0  0  0  0  0  0  0  0  0  0  0
    6.5490   -3.1471    0.0000 C   0  0  0  0  0  0  0  0  0  0  0  0
    8.0490   -3.1471    0.0000 C   0  0  0  0  0  0  0  0  0  0  0  0
    8.7990   -1.8481    0.0000 O   0  0  0  0  0  0  0  0  0  0  0  0
    8.7990   -4.4462    0.0000 O   0  0  0  0  0  0  0  0  0  0  0  0
    6.5490   -0.5490    0.0000 C   0  0  0  0  0  0  0  0  0  0  0  0
    5.7990    0.7500    0.0000 C   0  0  0  0  0  0  0  0  0  0  0  0
    4.2990    0.7500    0.0000 O   0  0  0  0  0  0  0  0  0  0  0  0
    6.5490    2.0490    0.0000 O   0  0  0  0  0  0  0  0  0  0  0  0
    0.5490    2.0490    0.0000 C   0  0  0  0  0  0  0  0  0  0  0  0
   -0.9510    2.0490    0.0000 C   0  0  0  0  0  0  0  0  0  0  0  0
   -1.7010    0.7500    0.0000 O   0  0  0  0  0  0  0  0  0  0  0  0
   -1.7010    3.3481    0.0000 O   0  0  0  0  0  1  0  0  0  0  0  0
    2.5981    6.0000    0.0000 C   0  0  0  0  0  0  0  0  0  0  0  0
    1.2990    5.2500    0.0000 C   0  0  0  0  0  0  0  0  0  0  0  0
   -0.0000    6.0000    0.0000 O   0  0  0  0  0  0  0  0  0  0  0  0
    1.2990    3.7500    0.0000 O   0  0  0  0  0  0  0  0  0  0  0  0
  1  2  2  0
  1  3  1  0
  1  4  1  0
  4  5  1  0
  5  6  1  0
  6  7  1  0
  7  8  1  0
  8  9  1  0
  9 10  1  0
  9 11  1  0
 11 12  1  0
 12 13  1  0
 13 14  1  0
 14 15  1  0
 15 16  1  0
 16 17  2  0
 16 18  1  0
 14 19  1  0
 19 20  1  0
 20 21  2  0
 20 22  1  0
  9 23  1  0
 23 24  1  0
 24 25  2  0
 24 26  1  0
  5 27  1  0
 27 28  1  0
 28 29  2  0
 28 30  1  0
M  CHG  2   9   1  26  -1
M  END
>  <Name>  (43) 
{Bis[3-(bis(carboxymethyl)amino)propyl]methylammonio}acetate

>  <logK_Eu_z=3.0_T=25_I=0.1>  (43) 
8.9

$$$$

     RDKit          2D

 34 33  0  0  0  0  0  0  0  0999 V2000
    2.5981   -0.0000    0.0000 O   0  0  0  0  0  0  0  0  0  0  0  0
    1.2990    0.7500    0.0000 C   0  0  0  0  0  0  0  0  0  0  0  0
    1.2990    2.2500    0.0000 O   0  0  0  0  0  0  0  0  0  0  0  0
    0.0000    0.0000    0.0000 C   0  0  0  0  0  0  0  0  0  0  0  0
   -1.2990    0.7500    0.0000 N   0  0  0  0  0  0  0  0  0  0  0  0
   -2.5981    0.0000    0.0000 C   0  0  0  0  0  0  0  0  0  0  0  0
   -3.8971    0.7500    0.0000 C   0  0  0  0  0  0  0  0  0  0  0  0
   -5.1962    0.0000    0.0000 N   0  0  0  0  0  0  0  0  0  0  0  0
   -6.4952    0.7500    0.0000 C   0  0  0  0  0  0  0  0  0  0  0  0
   -7.7942    0.0000    0.0000 C   0  0  0  0  0  0  0  0  0  0  0  0
   -9.0933    0.7500    0.0000 N   0  0  0  0  0  0  0  0  0  0  0  0
  -10.3923    0.0000    0.0000 C   0  0  0  0  0  0  0  0  0  0  0  0
  -11.6913    0.7500    0.0000 C   0  0  0  0  0  0  0  0  0  0  0  0
  -12.9904    0.0000    0.0000 O   0  0  0  0  0  0  0  0  0  0  0  0
  -11.6913    2.2500    0.0000 O   0  0  0  0  0  0  0  0  0  0  0  0
   -9.0933    2.2500    0.0000 C   0  0  0  0  0  0  0  0  0  0  0  0
   -7.7942    3.0000    0.0000 C   0  0  0  0  0  0  0  0  0  0  0  0
   -7.7942    4.5000    0.0000 O   0  0  0  0  0  0  0  0  0  0  0  0
   -6.4952    2.2500    0.0000 O   0  0  0  0  0  0  0  0  0  0  0  0
   -5.1962   -1.5000    0.0000 C   0  0  0  0  0  0  0  0  0  0  0  0
   -6.4952   -2.2500    0.0000 C   0  0  0  0  0  0  0  0  0  0  0  0
   -6.4952   -3.7500    0.0000 O   0  0  0  0  0  0  0  0  0  0  0  0
   -7.7942   -1.5000    0.0000 O   0  0  0  0  0  0  0  0  0  0  0  0
   -1.2990    2.2500    0.0000 C   0  0  0  0  0  0  0  0  0  0  0  0
   -2.5981    3.0000    0.0000 C   0  0  0  0  0  0  0  0  0  0  0  0
   -2.5981    4.5000    0.0000 N   0  0  0  0  0  0  0  0  0  0  0  0
   -3.8971    5.2500    0.0000 C   0  0  0  0  0  0  0  0  0  0  0  0
   -3.8971    6.7500    0.0000 C   0  0  0  0  0  0  0  0  0  0  0  0
   -5.1962    7.5000    0.0000 O   0  0  0  0  0  0  0  0  0  0  0  0
   -2.5981    7.5000    0.0000 O   0  0  0  0  0  0  0  0  0  0  0  0
   -1.2990    5.2500    0.0000 C   0  0  0  0  0  0  0  0  0  0  0  0
    0.0000    4.5000    0.0000 C   0  0  0  0  0  0  0  0  0  0  0  0
    1.2990    5.2500    0.0000 O   0  0  0  0  0  0  0  0  0  0  0  0
   -0.0000    3.0000    0.0000 O   0  0  0  0  0  0  0  0  0  0  0  0
  1  2  1  0
  2  3  2  0
  2  4  1  0
  4  5  1  0
  5  6  1  0
  6  7  1  0
  7  8  1  0
  8  9  1  0
  9 10  1  0
 10 11  1  0
 11 12  1  0
 12 13  1  0
 13 14  1  0
 13 15  2  0
 11 16  1  0
 16 17  1  0
 17 18  1  0
 17 19  2  0
  8 20  1  0
 20 21  1  0
 21 22  1  0
 21 23  2  0
  5 24  1  0
 24 25  1  0
 25 26  1  0
 26 27  1  0
 27 28  1  0
 28 29  1  0
 28 30  2  0
 26 31  1  0
 31 32  1  0
 32 33  1  0
 32 34  2  0
M  END
>  <Name>  (44) 
Triethylenetetranitrilohexaacetic_acid_(TTHA)

>  <logK_Eu_z=3.0_T=25_I=0.1>  (44) 
23.0

$$$$

     RDKit          2D

 24 24  0  0  0  0  0  0  0  0999 V2000
    1.5000   -2.5981    0.0000 O   0  0  0  0  0  0  0  0  0  0  0  0
    3.0000   -2.5981    0.0000 C   0  0  0  0  0  0  0  0  0  0  0  0
    3.7500   -1.2990    0.0000 C   0  0  0  0  0  0  0  0  0  0  0  0
    3.0000    0.0000    0.0000 N   0  0  0  0  0  0  0  0  0  0  0  0
    3.7500    1.2990    0.0000 C   0  0  0  0  0  0  0  0  0  0  0  0
    5.2500    1.2990    0.0000 C   0  0  0  0  0  0  0  0  0  0  0  0
    6.0000    0.0000    0.0000 O   0  0  0  0  0  0  0  0  0  0  0  0
    6.0000    2.5981    0.0000 O   0  0  0  0  0  0  0  0  0  0  0  0
    1.5000    0.0000    0.0000 C   0  0  0  0  0  0  0  0  0  0  0  0
    0.7500   -1.2990    0.0000 C   0  0  0  0  0  0  0  0  0  0  0  0
   -0.7500   -1.2990    0.0000 C   0  0  0  0  0  0  0  0  0  0  0  0
   -1.5000    0.0000    0.0000 C   0  0  0  0  0  0  0  0  0  0  0  0
   -0.7500    1.2990    0.0000 C   0  0  0  0  0  0  0  0  0  0  0  0
    0.7500    1.2990    0.0000 C   0  0  0  0  0  0  0  0  0  0  0  0
    1.5000    2.5981    0.0000 N   0  0  0  0  0  0  0  0  0  0  0  0
    0.7500    3.8971    0.0000 C   0  0  0  0  0  0  0  0  0  0  0  0
   -0.7500    3.8971    0.0000 C   0  0  0  0  0  0  0  0  0  0  0  0
   -1.5000    2.5981    0.0000 O   0  0  0  0  0  0  0  0  0  0  0  0
   -1.5000    5.1962    0.0000 O   0  0  0  0  0  0  0  0  0  0  0  0
    3.0000    2.5981    0.0000 C   0  0  0  0  0  0  0  0  0  0  0  0
    3.7500    3.8971    0.0000 C   0  0  0  0  0  0  0  0  0  0  0  0
    3.0000    5.1962    0.0000 O   0  0  0  0  0  0  0  0  0  0  0  0
    5.2500    3.8971    0.0000 O   0  0  0  0  0  0  0  0  0  0  0  0
    3.7500   -3.8971    0.0000 O   0  0  0  0  0  0  0  0  0  0  0  0
  1  2  1  0
  2  3  1  0
  3  4  1  0
  4  5  1  0
  5  6  1  0
  6  7  2  0
  6  8  1  0
  4  9  1  0
  9 10  2  0
 10 11  1  0
 11 12  2  0
 12 13  1  0
 13 14  2  0
 14 15  1  0
 15 16  1  0
 16 17  1  0
 17 18  2  0
 17 19  1  0
 15 20  1  0
 20 21  1  0
 21 22  2  0
 21 23  1  0
  2 24  2  0
 14  9  1  0
M  END
>  <Name>  (45) 
1,2-Phenylenedinitrilotetraacetic_acid

>  <logK_Eu_z=3.0_T=25_I=1.0>  (45) 
13.65

$$$$

     RDKit          2D

  9  9  0  0  0  0  0  0  0  0999 V2000
    3.7500   -1.2990    0.0000 O   0  0  0  0  0  0  0  0  0  0  0  0
    3.0000    0.0000    0.0000 C   0  0  0  0  0  0  0  0  0  0  0  0
    1.5000    0.0000    0.0000 C   0  0  0  0  0  0  0  0  0  0  0  0
    0.7500   -1.2990    0.0000 C   0  0  0  0  0  0  0  0  0  0  0  0
   -0.7500   -1.2990    0.0000 N   0  0  0  0  0  0  0  0  0  0  0  0
   -1.5000    0.0000    0.0000 C   0  0  0  0  0  0  0  0  0  0  0  0
   -0.7500    1.2990    0.0000 C   0  0  0  0  0  0  0  0  0  0  0  0
    0.7500    1.2990    0.0000 N   0  0  0  0  0  0  0  0  0  0  0  0
    3.7500    1.2990    0.0000 O   0  0  0  0  0  0  0  0  0  0  0  0
  1  2  1  0
  2  3  1  0
  3  4  2  0
  4  5  1  0
  5  6  2  0
  6  7  1  0
  7  8  2  0
  2  9  2  0
  8  3  1  0
M  END
>  <Name>  (46) 
1,4-Diazine-2-carboxylic_acid_(Pyrazinecarboxylic_acid)

>  <logK_Eu_z=3.0_T=25_I=1.0>  (46) 
2.82

$$$$

     RDKit          2D

  9  9  0  0  0  0  0  0  0  0999 V2000
    1.5000    0.0000    0.0000 C   0  0  0  0  0  0  0  0  0  0  0  0
    0.7500   -1.2990    0.0000 C   0  0  0  0  0  0  0  0  0  0  0  0
   -0.7500   -1.2990    0.0000 N   0  0  0  0  0  0  0  0  0  0  0  0
   -1.5000    0.0000    0.0000 C   0  0  0  0  0  0  0  0  0  0  0  0
   -0.7500    1.2990    0.0000 C   0  0  0  0  0  0  0  0  0  0  0  0
    0.7500    1.2990    0.0000 C   0  0  0  0  0  0  0  0  0  0  0  0
   -3.0000    0.0000    0.0000 C   0  0  0  0  0  0  0  0  0  0  0  0
   -3.7500   -1.2990    0.0000 O   0  0  0  0  0  0  0  0  0  0  0  0
   -3.7500    1.2990    0.0000 O   0  0  0  0  0  0  0  0  0  0  0  0
  1  2  2  0
  2  3  1  0
  3  4  2  0
  4  5  1  0
  5  6  2  0
  4  7  1  0
  7  8  2  0
  7  9  1  0
  6  1  1  0
M  END
>  <Name>  (47) 
Pyridine-2-carboxylic_acid_(Picolinic_acid)

>  <logK_Eu_z=3.0_T=25_I=0.1>  (47) 
3.99

>  <logK_Eu_z=3.0_T=25_I=0.5>  (47) 
3.61

$$$$

     RDKit          2D

 10 10  0  0  0  0  0  0  0  0999 V2000
    3.0000    0.0000    0.0000 O   0  0  0  0  0  1  0  0  0  0  0  0
    1.5000    0.0000    0.0000 N   0  0  0  0  0  4  0  0  0  0  0  0
    0.7500   -1.2990    0.0000 C   0  0  0  0  0  0  0  0  0  0  0  0
   -0.7500   -1.2990    0.0000 C   0  0  0  0  0  0  0  0  0  0  0  0
   -1.5000    0.0000    0.0000 C   0  0  0  0  0  0  0  0  0  0  0  0
   -0.7500    1.2990    0.0000 C   0  0  0  0  0  0  0  0  0  0  0  0
    0.7500    1.2990    0.0000 C   0  0  0  0  0  0  0  0  0  0  0  0
    1.5000    2.5981    0.0000 C   0  0  0  0  0  0  0  0  0  0  0  0
    0.7500    3.8971    0.0000 O   0  0  0  0  0  0  0  0  0  0  0  0
    3.0000    2.5981    0.0000 O   0  0  0  0  0  0  0  0  0  0  0  0
  1  2  1  0
  2  3  2  0
  3  4  1  0
  4  5  2  0
  5  6  1  0
  6  7  2  0
  7  8  1  0
  8  9  2  0
  8 10  1  0
  7  2  1  0
M  CHG  2   1  -1   2   1
M  END
>  <Name>  (48) 
Pyridine-2-carboxylic_acid_N-oxide

>  <logK_Eu_z=3.0_T=25_I=2.0>  (48) 
2.94

$$$$

     RDKit          2D

 12 12  0  0  0  0  0  0  0  0999 V2000
    1.5000    0.0000    0.0000 N   0  0  0  0  0  0  0  0  0  0  0  0
    0.7500   -1.2990    0.0000 C   0  0  0  0  0  0  0  0  0  0  0  0
    1.5000   -2.5981    0.0000 C   0  0  0  0  0  0  0  0  0  0  0  0
    3.0000   -2.5981    0.0000 O   0  0  0  0  0  0  0  0  0  0  0  0
    0.7500   -3.8971    0.0000 O   0  0  0  0  0  0  0  0  0  0  0  0
   -0.7500   -1.2990    0.0000 C   0  0  0  0  0  0  0  0  0  0  0  0
   -1.5000   -2.5981    0.0000 C   0  0  0  0  0  0  0  0  0  0  0  0
   -0.7500   -3.8971    0.0000 O   0  0  0  0  0  0  0  0  0  0  0  0
   -3.0000   -2.5981    0.0000 O   0  0  0  0  0  0  0  0  0  0  0  0
   -1.5000    0.0000    0.0000 C   0  0  0  0  0  0  0  0  0  0  0  0
   -0.7500    1.2990    0.0000 C   0  0  0  0  0  0  0  0  0  0  0  0
    0.7500    1.2990    0.0000 C   0  0  0  0  0  0  0  0  0  0  0  0
  1  2  2  0
  2  3  1  0
  3  4  1  0
  3  5  2  0
  2  6  1  0
  6  7  1  0
  7  8  2  0
  7  9  1  0
  6 10  2  0
 10 11  1  0
 11 12  2  0
 12  1  1  0
M  END
>  <Name>  (49) 
Pyridine-2,3-dicarboxylic_acid_(Quinolinic_acid)

>  <logK_Eu_z=3.0_T=25_I=0.5>  (49) 
3.6

$$$$

     RDKit          2D

 12 12  0  0  0  0  0  0  0  0999 V2000
    1.5000    0.0000    0.0000 N   0  0  0  0  0  0  0  0  0  0  0  0
    0.7500   -1.2990    0.0000 C   0  0  0  0  0  0  0  0  0  0  0  0
    1.5000   -2.5981    0.0000 C   0  0  0  0  0  0  0  0  0  0  0  0
    0.7500   -3.8971    0.0000 O   0  0  0  0  0  0  0  0  0  0  0  0
    3.0000   -2.5981    0.0000 O   0  0  0  0  0  0  0  0  0  0  0  0
   -0.7500   -1.2990    0.0000 C   0  0  0  0  0  0  0  0  0  0  0  0
   -1.5000    0.0000    0.0000 C   0  0  0  0  0  0  0  0  0  0  0  0
   -0.7500    1.2990    0.0000 C   0  0  0  0  0  0  0  0  0  0  0  0
    0.7500    1.2990    0.0000 C   0  0  0  0  0  0  0  0  0  0  0  0
    1.5000    2.5981    0.0000 C   0  0  0  0  0  0  0  0  0  0  0  0
    3.0000    2.5981    0.0000 O   0  0  0  0  0  0  0  0  0  0  0  0
    0.7500    3.8971    0.0000 O   0  0  0  0  0  0  0  0  0  0  0  0
  1  2  2  0
  2  3  1  0
  3  4  1  0
  3  5  2  0
  2  6  1  0
  6  7  2  0
  7  8  1  0
  8  9  2  0
  9 10  1  0
 10 11  1  0
 10 12  2  0
  9  1  1  0
M  END
>  <Name>  (50) 
Pyridine-2,6-dicarboxylic_acid_(Dipicolinic_acid)

>  <logK_Eu_z=3.0_T=25_I=0.5>  (50) 
8.79

$$$$

     RDKit          2D

 16 16  0  0  0  0  0  0  0  0999 V2000
    5.2500    1.2990    0.0000 O   0  0  0  0  0  0  0  0  0  0  0  0
    6.0000    0.0000    0.0000 C   0  0  0  0  0  0  0  0  0  0  0  0
    5.2500   -1.2990    0.0000 C   0  0  0  0  0  0  0  0  0  0  0  0
    3.7500   -1.2990    0.0000 N   0  0  0  0  0  0  0  0  0  0  0  0
    3.0000   -2.5981    0.0000 C   0  0  0  0  0  0  0  0  0  0  0  0
    3.7500   -3.8971    0.0000 C   0  0  0  0  0  0  0  0  0  0  0  0
    5.2500   -3.8971    0.0000 O   0  0  0  0  0  0  0  0  0  0  0  0
    3.0000   -5.1962    0.0000 O   0  0  0  0  0  0  0  0  0  0  0  0
    3.0000    0.0000    0.0000 C   0  0  0  0  0  0  0  0  0  0  0  0
    1.5000    0.0000    0.0000 C   0  0  0  0  0  0  0  0  0  0  0  0
    0.7500   -1.2990    0.0000 C   0  0  0  0  0  0  0  0  0  0  0  0
   -0.7500   -1.2990    0.0000 C   0  0  0  0  0  0  0  0  0  0  0  0
   -1.5000    0.0000    0.0000 C   0  0  0  0  0  0  0  0  0  0  0  0
   -0.7500    1.2990    0.0000 C   0  0  0  0  0  0  0  0  0  0  0  0
    0.7500    1.2990    0.0000 N   0  0  0  0  0  0  0  0  0  0  0  0
    7.5000   -0.0000    0.0000 O   0  0  0  0  0  0  0  0  0  0  0  0
  1  2  1  0
  2  3  1  0
  3  4  1  0
  4  5  1  0
  5  6  1  0
  6  7  2  0
  6  8  1  0
  4  9  1  0
  9 10  1  0
 10 11  2  0
 11 12  1  0
 12 13  2  0
 13 14  1  0
 14 15  2  0
  2 16  2  0
 15 10  1  0
M  END
>  <Name>  (51) 
N-(2-Pyridylmethyl)iminodiacetic_acid

>  <logK_Eu_z=3.0_T=25_I=0.1>  (51) 
8.92

$$$$

     RDKit          2D

 17 17  0  0  0  0  0  0  0  0999 V2000
    3.0000    0.0000    0.0000 C   0  0  0  0  0  0  0  0  0  0  0  0
    1.5000    0.0000    0.0000 C   0  0  0  0  0  0  0  0  0  0  0  0
    0.7500   -1.2990    0.0000 C   0  0  0  0  0  0  0  0  0  0  0  0
   -0.7500   -1.2990    0.0000 C   0  0  0  0  0  0  0  0  0  0  0  0
   -1.5000    0.0000    0.0000 C   0  0  0  0  0  0  0  0  0  0  0  0
   -0.7500    1.2990    0.0000 C   0  0  0  0  0  0  0  0  0  0  0  0
    0.7500    1.2990    0.0000 N   0  0  0  0  0  0  0  0  0  0  0  0
   -1.5000    2.5981    0.0000 C   0  0  0  0  0  0  0  0  0  0  0  0
   -0.7500    3.8971    0.0000 N   0  0  0  0  0  0  0  0  0  0  0  0
   -1.5000    5.1962    0.0000 C   0  0  0  0  0  0  0  0  0  0  0  0
   -3.0000    5.1962    0.0000 C   0  0  0  0  0  0  0  0  0  0  0  0
   -3.7500    3.8971    0.0000 O   0  0  0  0  0  0  0  0  0  0  0  0
   -3.7500    6.4952    0.0000 O   0  0  0  0  0  0  0  0  0  0  0  0
    0.7500    3.8971    0.0000 C   0  0  0  0  0  0  0  0  0  0  0  0
    1.5000    5.1962    0.0000 C   0  0  0  0  0  0  0  0  0  0  0  0
    0.7500    6.4952    0.0000 O   0  0  0  0  0  0  0  0  0  0  0  0
    3.0000    5.1962    0.0000 O   0  0  0  0  0  0  0  0  0  0  0  0
  1  2  1  0
  2  3  2  0
  3  4  1  0
  4  5  2  0
  5  6  1  0
  6  7  2  0
  6  8  1  0
  8  9  1  0
  9 10  1  0
 10 11  1  0
 11 12  2  0
 11 13  1  0
  9 14  1  0
 14 15  1  0
 15 16  2  0
 15 17  1  0
  7  2  1  0
M  END
>  <Name>  (52) 
N-(6-Methyl-2-pyridylmethyl)iminodiacetic_acid

>  <logK_Eu_z=3.0_T=25_I=0.1>  (52) 
6.76

$$$$

     RDKit          2D

  8  7  0  0  0  0  0  0  0  0999 V2000
    0.5490    2.0490    0.0000 N   0  0  0  0  0  0  0  0  0  0  0  0
    1.2990    0.7500    0.0000 C   0  0  0  0  0  0  0  0  0  0  0  0
    0.0000    0.0000    0.0000 C   0  0  0  0  0  0  0  0  0  0  0  0
   -1.2990    0.7500    0.0000 O   0  0  0  0  0  0  0  0  0  0  0  0
    2.5981    1.5000    0.0000 C   0  0  0  0  0  0  0  0  0  0  0  0
    2.5981    3.0000    0.0000 O   0  0  0  0  0  0  0  0  0  0  0  0
    2.0490   -0.5490    0.0000 C   0  0  0  0  0  0  0  0  0  0  0  0
    3.5490   -0.5490    0.0000 O   0  0  0  0  0  0  0  0  0  0  0  0
  1  2  1  0
  2  3  1  0
  3  4  1  0
  2  5  1  0
  5  6  1  0
  2  7  1  0
  7  8  1  0
M  END
>  <Name>  (53) 
2-Amino-2-hydroxymethyl-1,3-propanediol_(THAM)(TRIS)

>  <logK_Eu_z=3.0_T=25_I=0.1>  (53) 
2.44

$$$$

     RDKit          2D

 18 18  0  0  0  0  0  0  0  0999 V2000
    4.3191    0.0000    0.0000 N   0  0  0  0  0  0  0  0  0  0  0  0
    4.0586   -1.4772    0.0000 C   0  0  0  0  0  0  0  0  0  0  0  0
    3.3086   -2.7762    0.0000 C   0  0  0  0  0  0  0  0  0  0  0  0
    2.1595   -3.7404    0.0000 N   0  0  0  0  0  0  0  0  0  0  0  0
    0.7500   -4.2535    0.0000 C   0  0  0  0  0  0  0  0  0  0  0  0
   -0.7500   -4.2535    0.0000 C   0  0  0  0  0  0  0  0  0  0  0  0
   -2.1595   -3.7404    0.0000 N   0  0  0  0  0  0  0  0  0  0  0  0
   -3.3086   -2.7762    0.0000 C   0  0  0  0  0  0  0  0  0  0  0  0
   -4.0586   -1.4772    0.0000 C   0  0  0  0  0  0  0  0  0  0  0  0
   -4.3191    0.0000    0.0000 N   0  0  0  0  0  0  0  0  0  0  0  0
   -4.0586    1.4772    0.0000 C   0  0  0  0  0  0  0  0  0  0  0  0
   -3.3086    2.7762    0.0000 C   0  0  0  0  0  0  0  0  0  0  0  0
   -2.1595    3.7404    0.0000 N   0  0  0  0  0  0  0  0  0  0  0  0
   -0.7500    4.2535    0.0000 C   0  0  0  0  0  0  0  0  0  0  0  0
    0.7500    4.2535    0.0000 C   0  0  0  0  0  0  0  0  0  0  0  0
    2.1595    3.7404    0.0000 N   0  0  0  0  0  0  0  0  0  0  0  0
    3.3086    2.7762    0.0000 C   0  0  0  0  0  0  0  0  0  0  0  0
    4.0586    1.4772    0.0000 C   0  0  0  0  0  0  0  0  0  0  0  0
  1  2  1  0
  2  3  1  0
  3  4  1  0
  4  5  1  0
  5  6  1  0
  6  7  1  0
  7  8  1  0
  8  9  1  0
  9 10  1  0
 10 11  1  0
 11 12  1  0
 12 13  1  0
 13 14  1  0
 14 15  1  0
 15 16  1  0
 16 17  1  0
 17 18  1  0
 18  1  1  0
M  END
>  <Name>  (54) 
1,4,7,10,13,16-Hexaazacyclooctadecane_([18]aneN6)

>  <logK_Eu_z=3.0_T=25_I=0.1>  (54) 
8.27

$$$$

     RDKit          2D

 23 24  0  0  0  0  0  0  0  0999 V2000
    3.6073    0.0000    0.0000 O   0  0  0  0  0  0  0  0  0  0  0  0
    3.2954    1.4672    0.0000 C   0  0  0  0  0  0  0  0  0  0  0  0
    2.4138    2.6807    0.0000 C   0  0  0  0  0  0  0  0  0  0  0  0
    1.1147    3.4307    0.0000 N   0  0  0  0  0  0  0  0  0  0  0  0
   -0.3771    3.5875    0.0000 C   0  0  0  0  0  0  0  0  0  0  0  0
   -1.8037    3.1240    0.0000 C   0  0  0  0  0  0  0  0  0  0  0  0
   -2.9184    2.1203    0.0000 O   0  0  0  0  0  0  0  0  0  0  0  0
   -3.5285    0.7500    0.0000 C   0  0  0  0  0  0  0  0  0  0  0  0
   -3.5285   -0.7500    0.0000 C   0  0  0  0  0  0  0  0  0  0  0  0
   -2.9184   -2.1203    0.0000 O   0  0  0  0  0  0  0  0  0  0  0  0
   -1.8037   -3.1240    0.0000 C   0  0  0  0  0  0  0  0  0  0  0  0
   -0.3771   -3.5875    0.0000 C   0  0  0  0  0  0  0  0  0  0  0  0
    1.1147   -3.4307    0.0000 N   0  0  0  0  0  0  0  0  0  0  0  0
    2.6065   -3.5875    0.0000 C   0  0  0  0  0  0  0  0  0  0  0  0
    4.0331   -3.1240    0.0000 C   0  0  0  0  0  0  0  0  0  0  0  0
    5.1478   -2.1203    0.0000 O   0  0  0  0  0  0  0  0  0  0  0  0
    5.7579   -0.7500    0.0000 C   0  0  0  0  0  0  0  0  0  0  0  0
    5.7579    0.7500    0.0000 C   0  0  0  0  0  0  0  0  0  0  0  0
    5.1478    2.1203    0.0000 O   0  0  0  0  0  0  0  0  0  0  0  0
    4.0331    3.1240    0.0000 C   0  0  0  0  0  0  0  0  0  0  0  0
    2.6065    3.5875    0.0000 C   0  0  0  0  0  0  0  0  0  0  0  0
    2.4138   -2.6807    0.0000 C   0  0  0  0  0  0  0  0  0  0  0  0
    3.2954   -1.4672    0.0000 C   0  0  0  0  0  0  0  0  0  0  0  0
  1  2  1  0
  2  3  1  0
  3  4  1  0
  4  5  1  0
  5  6  1  0
  6  7  1  0
  7  8  1  0
  8  9  1  0
  9 10  1  0
 10 11  1  0
 11 12  1  0
 12 13  1  0
 13 14  1  0
 14 15  1  0
 15 16  1  0
 16 17  1  0
 17 18  1  0
 18 19  1  0
 19 20  1  0
 20 21  1  0
 13 22  1  0
 22 23  1  0
 23  1  1  0
 21  4  1  0
M  END
>  <Name>  (55) 
4,7,13,16,21-Pentaoxa-1,10-diazabicyclo[8.8.5]tricosane_([2.2.1]cryptand)

>  <logK_Eu_z=2.0_T=25_I=0.5>  (55) 
10.2

>  <logK_Eu_z=3.0_T=25_I=0.5>  (55) 
6.8

$$$$

     RDKit          2D

 26 27  0  0  0  0  0  0  0  0999 V2000
    4.3191    0.0000    0.0000 O   0  0  0  0  0  0  0  0  0  0  0  0
    4.0586   -1.4772    0.0000 C   0  0  0  0  0  0  0  0  0  0  0  0
    3.3086   -2.7762    0.0000 C   0  0  0  0  0  0  0  0  0  0  0  0
    2.1595   -3.7404    0.0000 O   0  0  0  0  0  0  0  0  0  0  0  0
    0.7500   -4.2535    0.0000 C   0  0  0  0  0  0  0  0  0  0  0  0
   -0.7500   -4.2535    0.0000 C   0  0  0  0  0  0  0  0  0  0  0  0
   -2.1595   -3.7404    0.0000 N   0  0  0  0  0  0  0  0  0  0  0  0
   -3.3086   -2.7762    0.0000 C   0  0  0  0  0  0  0  0  0  0  0  0
   -4.0586   -1.4772    0.0000 C   0  0  0  0  0  0  0  0  0  0  0  0
   -4.3191    0.0000    0.0000 O   0  0  0  0  0  0  0  0  0  0  0  0
   -4.0586    1.4772    0.0000 C   0  0  0  0  0  0  0  0  0  0  0  0
   -3.3086    2.7762    0.0000 C   0  0  0  0  0  0  0  0  0  0  0  0
   -2.1595    3.7404    0.0000 O   0  0  0  0  0  0  0  0  0  0  0  0
   -0.7500    4.2535    0.0000 C   0  0  0  0  0  0  0  0  0  0  0  0
    0.7500    4.2535    0.0000 C   0  0  0  0  0  0  0  0  0  0  0  0
    2.1595    3.7404    0.0000 N   0  0  0  0  0  0  0  0  0  0  0  0
    3.3086    2.7762    0.0000 C   0  0  0  0  0  0  0  0  0  0  0  0
    4.0586    1.4772    0.0000 C   0  0  0  0  0  0  0  0  0  0  0  0
    1.3439    3.0009    0.0000 C   0  0  0  0  0  0  0  0  0  0  0  0
    0.9616    2.8766    0.0000 C   0  0  0  0  0  0  0  0  0  0  0  0
   -0.0944    1.5414    0.0000 O   0  0  0  0  0  0  0  0  0  0  0  0
   -0.3678    1.2717    0.0000 C   0  0  0  0  0  0  0  0  0  0  0  0
   -1.2853   -0.3173    0.0000 C   0  0  0  0  0  0  0  0  0  0  0  0
   -1.3821   -0.6890    0.0000 O   0  0  0  0  0  0  0  0  0  0  0  0
   -2.0104   -2.2710    0.0000 C   0  0  0  0  0  0  0  0  0  0  0  0
   -1.9269   -2.6643    0.0000 C   0  0  0  0  0  0  0  0  0  0  0  0
  1  2  1  0
  2  3  1  0
  3  4  1  0
  4  5  1  0
  5  6  1  0
  6  7  1  0
  7  8  1  0
  8  9  1  0
  9 10  1  0
 10 11  1  0
 11 12  1  0
 12 13  1  0
 13 14  1  0
 14 15  1  0
 15 16  1  0
 16 17  1  0
 17 18  1  0
 16 19  1  0
 19 20  1  0
 20 21  1  0
 21 22  1  0
 22 23  1  0
 23 24  1  0
 24 25  1  0
 25 26  1  0
 18  1  1  0
 26  7  1  0
M  END
>  <Name>  (56) 
4,7,13,16,21,24-Hexaoxa-1,10-diazabicyclo[8.8.8]hexacosane_([2.2.2]cryptand)

>  <logK_Eu_z=2.0_T=25_I=0.5>  (56) 
13.0

>  <logK_Eu_z=3.0_T=25_I=0.5>  (56) 
5.9

$$$$

     RDKit          2D

 23 25  0  0  0  0  0  0  0  0999 V2000
   -1.2135   -2.7256    0.0000 N   0  0  0  0  0  0  0  0  0  0  0  0
   -2.6401   -3.1891    0.0000 C   0  0  0  0  0  0  0  0  0  0  0  0
   -3.1036   -4.6157    0.0000 C   0  0  0  0  0  0  0  0  0  0  0  0
   -2.2220   -5.8293    0.0000 O   0  0  0  0  0  0  0  0  0  0  0  0
   -4.6036   -4.6157    0.0000 C   0  0  0  0  0  0  0  0  0  0  0  0
   -5.4853   -5.8293    0.0000 O   0  0  0  0  0  0  0  0  0  0  0  0
   -5.0672   -3.1891    0.0000 C   0  0  0  0  0  0  0  0  0  0  0  0
   -6.4937   -2.7256    0.0000 C   0  0  0  0  0  0  0  0  0  0  0  0
   -6.8056   -1.2584    0.0000 O   0  0  0  0  0  0  0  0  0  0  0  0
   -8.2322   -0.7949    0.0000 P   0  0  0  0  0  0  0  0  0  0  0  0
   -8.6957   -2.2215    0.0000 O   0  0  0  0  0  0  0  0  0  0  0  0
   -7.7687    0.6317    0.0000 O   0  0  0  0  0  0  0  0  0  0  0  0
   -9.6588   -0.3314    0.0000 O   0  0  0  0  0  0  0  0  0  0  0  0
   -3.8536   -2.3075    0.0000 O   0  0  0  0  0  0  0  0  0  0  0  0
   -0.0000   -3.6073    0.0000 C   0  0  0  0  0  0  0  0  0  0  0  0
    1.2135   -2.7256    0.0000 N   0  0  0  0  0  0  0  0  0  0  0  0
    0.7500   -1.2990    0.0000 C   0  0  0  0  0  0  0  0  0  0  0  0
    1.5000    0.0000    0.0000 C   0  0  0  0  0  0  0  0  0  0  0  0
    0.7500    1.2990    0.0000 N   0  0  0  0  0  0  0  0  0  0  0  0
   -0.7500    1.2990    0.0000 C   0  0  0  0  0  0  0  0  0  0  0  0
   -1.5000    0.0000    0.0000 N   0  0  0  0  0  0  0  0  0  0  0  0
   -0.7500   -1.2990    0.0000 C   0  0  0  0  0  0  0  0  0  0  0  0
    3.0000    0.0000    0.0000 N   0  0  0  0  0  0  0  0  0  0  0  0
  2  1  1  1
  2  3  1  0
  3  4  1  6
  3  5  1  0
  5  6  1  6
  5  7  1  0
  7  8  1  1
  8  9  1  0
  9 10  1  0
 10 11  1  0
 10 12  2  0
 10 13  1  0
  7 14  1  0
  1 15  1  0
 15 16  2  0
 16 17  1  0
 17 18  2  0
 18 19  1  0
 19 20  2  0
 20 21  1  0
 21 22  2  0
 18 23  1  0
 22  1  1  0
 14  2  1  0
 22 17  1  0
M  END
>  <Name>  (57) 
Adenosine-5'-(dihydrogenphosphate)_(AMP-5)

>  <logK_Eu_z=3.0_T=25_I=0.1>  (57) 
4.565

$$$$

     RDKit          2D

 31 33  0  0  0  0  0  0  0  0999 V2000
   -1.2135   -2.7256    0.0000 N   0  0  0  0  0  0  0  0  0  0  0  0
   -2.6401   -3.1891    0.0000 C   0  0  0  0  0  0  0  0  0  0  0  0
   -3.1036   -4.6157    0.0000 C   0  0  0  0  0  0  0  0  0  0  0  0
   -2.2220   -5.8293    0.0000 O   0  0  0  0  0  0  0  0  0  0  0  0
   -4.6036   -4.6157    0.0000 C   0  0  0  0  0  0  0  0  0  0  0  0
   -5.4853   -5.8293    0.0000 O   0  0  0  0  0  0  0  0  0  0  0  0
   -5.0672   -3.1891    0.0000 C   0  0  0  0  0  0  0  0  0  0  0  0
   -6.4937   -2.7256    0.0000 C   0  0  0  0  0  0  0  0  0  0  0  0
   -6.8056   -1.2584    0.0000 O   0  0  0  0  0  0  0  0  0  0  0  0
   -8.2322   -0.7949    0.0000 P   0  0  0  0  0  0  0  0  0  0  0  0
   -7.7687    0.6317    0.0000 O   0  0  0  0  0  0  0  0  0  0  0  0
   -8.6957   -2.2215    0.0000 O   0  0  0  0  0  0  0  0  0  0  0  0
   -9.6588   -0.3314    0.0000 O   0  0  0  0  0  0  0  0  0  0  0  0
  -10.7735   -1.3350    0.0000 P   0  0  0  0  0  0  0  0  0  0  0  0
   -9.7698   -2.4498    0.0000 O   0  0  0  0  0  0  0  0  0  0  0  0
  -11.7772   -0.2203    0.0000 O   0  0  0  0  0  0  0  0  0  0  0  0
  -11.8882   -2.3387    0.0000 O   0  0  0  0  0  0  0  0  0  0  0  0
  -11.5764   -3.8060    0.0000 P   0  0  0  0  0  0  0  0  0  0  0  0
  -10.1091   -3.4941    0.0000 O   0  0  0  0  0  0  0  0  0  0  0  0
  -13.0436   -4.1178    0.0000 O   0  0  0  0  0  0  0  0  0  0  0  0
  -11.2645   -5.2732    0.0000 O   0  0  0  0  0  0  0  0  0  0  0  0
   -3.8536   -2.3075    0.0000 O   0  0  0  0  0  0  0  0  0  0  0  0
   -0.0000   -3.6073    0.0000 C   0  0  0  0  0  0  0  0  0  0  0  0
    1.2135   -2.7256    0.0000 N   0  0  0  0  0  0  0  0  0  0  0  0
    0.7500   -1.2990    0.0000 C   0  0  0  0  0  0  0  0  0  0  0  0
    1.5000    0.0000    0.0000 C   0  0  0  0  0  0  0  0  0  0  0  0
    0.7500    1.2990    0.0000 N   0  0  0  0  0  0  0  0  0  0  0  0
   -0.7500    1.2990    0.0000 C   0  0  0  0  0  0  0  0  0  0  0  0
   -1.5000    0.0000    0.0000 N   0  0  0  0  0  0  0  0  0  0  0  0
   -0.7500   -1.2990    0.0000 C   0  0  0  0  0  0  0  0  0  0  0  0
    3.0000    0.0000    0.0000 N   0  0  0  0  0  0  0  0  0  0  0  0
  2  1  1  1
  2  3  1  0
  3  4  1  6
  3  5  1  0
  5  6  1  6
  5  7  1  0
  7  8  1  1
  8  9  1  0
  9 10  1  0
 10 11  1  0
 10 12  2  0
 10 13  1  0
 13 14  1  0
 14 15  1  0
 14 16  2  0
 14 17  1  0
 17 18  1  0
 18 19  1  0
 18 20  2  0
 18 21  1  0
  7 22  1  0
  1 23  1  0
 23 24  2  0
 24 25  1  0
 25 26  2  0
 26 27  1  0
 27 28  2  0
 28 29  1  0
 29 30  2  0
 26 31  1  0
 30  1  1  0
 22  2  1  0
 30 25  1  0
M  END
>  <Name>  (58) 
Adenosine-5'-(tetrahydrogentriphosphate)_(ATP)

>  <logK_Eu_z=3.0_T=25_I=0.1>  (58) 
6.484999999999999

$$$$

     RDKit          2D

  3  2  0  0  0  0  0  0  0  0999 V2000
    0.0000    0.0000    0.0000 C   0  0  0  0  0  0  0  0  0  0  0  0
    1.2990    0.7500    0.0000 O   0  0  0  0  0  0  0  0  0  0  0  0
   -1.2990    0.7500    0.0000 O   0  0  0  0  0  0  0  0  0  0  0  0
  1  2  1  0
  1  3  2  0
M  END
>  <Name>  (59) 
Methanoic_acid_(Formic_acid)

>  <logK_Eu_z=3.0_T=25_I=0.1>  (59) 
1.4

$$$$

     RDKit          2D

  4  3  0  0  0  0  0  0  0  0999 V2000
    1.2990    0.7500    0.0000 C   0  0  0  0  0  0  0  0  0  0  0  0
    2.5981   -0.0000    0.0000 O   0  0  0  0  0  0  0  0  0  0  0  0
    1.2990    2.2500    0.0000 O   0  0  0  0  0  0  0  0  0  0  0  0
    0.0000    0.0000    0.0000 C   0  0  0  0  0  0  0  0  0  0  0  0
  1  2  1  0
  1  3  2  0
  1  4  1  0
M  END
>  <Name>  (60) 
Ethanoic_acid_(Acetic_acid)

>  <logK_Eu_z=3.0_T=25_I=0.1>  (60) 
2.13

>  <logK_Eu_z=3.0_T=25_I=0.5>  (60) 
1.96

>  <logK_Eu_z=3.0_T=25_I=2.0>  (60) 
1.9

$$$$

     RDKit          2D

  5  4  0  0  0  0  0  0  0  0999 V2000
    2.5981   -1.5000    0.0000 O   0  0  0  0  0  0  0  0  0  0  0  0
    2.5981   -0.0000    0.0000 C   0  0  0  0  0  0  0  0  0  0  0  0
    1.2990    0.7500    0.0000 C   0  0  0  0  0  0  0  0  0  0  0  0
    0.0000    0.0000    0.0000 C   0  0  0  0  0  0  0  0  0  0  0  0
    3.8971    0.7500    0.0000 O   0  0  0  0  0  0  0  0  0  0  0  0
  1  2  2  0
  2  3  1  0
  3  4  1  0
  2  5  1  0
M  END
>  <Name>  (61) 
Propanoic_acid_(Propionic_acid)

>  <logK_Eu_z=3.0_T=20_I=0.1>  (61) 
2.23

>  <logK_Eu_z=3.0_T=25_I=2.0>  (61) 
1.98

$$$$

     RDKit          2D

  6  5  0  0  0  0  0  0  0  0999 V2000
    0.0000    0.0000    0.0000 C   0  0  0  0  0  0  0  0  0  0  0  0
    1.2990    0.7500    0.0000 C   0  0  0  0  0  0  0  0  0  0  0  0
    1.2990    2.2500    0.0000 C   0  0  0  0  0  0  0  0  0  0  0  0
   -0.0000    3.0000    0.0000 O   0  0  0  0  0  0  0  0  0  0  0  0
    2.5981    3.0000    0.0000 O   0  0  0  0  0  0  0  0  0  0  0  0
    2.5981   -0.0000    0.0000 C   0  0  0  0  0  0  0  0  0  0  0  0
  1  2  1  0
  2  3  1  0
  3  4  2  0
  3  5  1  0
  2  6  1  0
M  END
>  <Name>  (62) 
2-Methylpropanoic_acid_(Isobutyric_acid)

>  <logK_Eu_z=3.0_T=25_I=0.5>  (62) 
1.98

>  <logK_Eu_z=3.0_T=25_I=2.0>  (62) 
1.98

$$$$

     RDKit          2D

  9  9  0  0  0  0  0  0  0  0999 V2000
    3.7500   -1.2990    0.0000 O   0  0  0  0  0  0  0  0  0  0  0  0
    3.0000    0.0000    0.0000 C   0  0  0  0  0  0  0  0  0  0  0  0
    1.5000    0.0000    0.0000 C   0  0  0  0  0  0  0  0  0  0  0  0
    0.7500   -1.2990    0.0000 C   0  0  0  0  0  0  0  0  0  0  0  0
   -0.7500   -1.2990    0.0000 C   0  0  0  0  0  0  0  0  0  0  0  0
   -1.5000    0.0000    0.0000 C   0  0  0  0  0  0  0  0  0  0  0  0
   -0.7500    1.2990    0.0000 C   0  0  0  0  0  0  0  0  0  0  0  0
    0.7500    1.2990    0.0000 C   0  0  0  0  0  0  0  0  0  0  0  0
    3.7500    1.2990    0.0000 O   0  0  0  0  0  0  0  0  0  0  0  0
  1  2  1  0
  2  3  1  0
  3  4  2  0
  4  5  1  0
  5  6  2  0
  6  7  1  0
  7  8  2  0
  2  9  2  0
  8  3  1  0
M  END
>  <Name>  (63) 
Benzenecarboxylic_acid_(Benzoic_acid)

>  <logK_Eu_z=3.0_T=25_I=0.1>  (63) 
2.16

$$$$

     RDKit          2D

 10 10  0  0  0  0  0  0  0  0999 V2000
    5.2500   -1.2990    0.0000 O   0  0  0  0  0  0  0  0  0  0  0  0
    3.7500   -1.2990    0.0000 C   0  0  0  0  0  0  0  0  0  0  0  0
    3.0000   -2.5981    0.0000 O   0  0  0  0  0  0  0  0  0  0  0  0
    3.0000    0.0000    0.0000 C   0  0  0  0  0  0  0  0  0  0  0  0
    1.5000    0.0000    0.0000 C   0  0  0  0  0  0  0  0  0  0  0  0
    0.7500   -1.2990    0.0000 C   0  0  0  0  0  0  0  0  0  0  0  0
   -0.7500   -1.2990    0.0000 C   0  0  0  0  0  0  0  0  0  0  0  0
   -1.5000    0.0000    0.0000 C   0  0  0  0  0  0  0  0  0  0  0  0
   -0.7500    1.2990    0.0000 C   0  0  0  0  0  0  0  0  0  0  0  0
    0.7500    1.2990    0.0000 C   0  0  0  0  0  0  0  0  0  0  0  0
  1  2  1  0
  2  3  2  0
  2  4  1  0
  4  5  1  0
  5  6  2  0
  6  7  1  0
  7  8  2  0
  8  9  1  0
  9 10  2  0
 10  5  1  0
M  END
>  <Name>  (64) 
Phenylacetic_acid

>  <logK_Eu_z=3.0_T=25_I=0.1>  (64) 
2.06

$$$$

     RDKit          2D

 11 11  0  0  0  0  0  0  0  0999 V2000
    5.2500   -1.2990    0.0000 C   0  0  0  0  0  0  0  0  0  0  0  0
    6.0000   -2.5981    0.0000 O   0  0  0  0  0  0  0  0  0  0  0  0
    3.7500   -1.2990    0.0000 C   0  0  0  0  0  0  0  0  0  0  0  0
    3.0000    0.0000    0.0000 C   0  0  0  0  0  0  0  0  0  0  0  0
    1.5000    0.0000    0.0000 C   0  0  0  0  0  0  0  0  0  0  0  0
    0.7500   -1.2990    0.0000 C   0  0  0  0  0  0  0  0  0  0  0  0
   -0.7500   -1.2990    0.0000 C   0  0  0  0  0  0  0  0  0  0  0  0
   -1.5000    0.0000    0.0000 C   0  0  0  0  0  0  0  0  0  0  0  0
   -0.7500    1.2990    0.0000 C   0  0  0  0  0  0  0  0  0  0  0  0
    0.7500    1.2990    0.0000 C   0  0  0  0  0  0  0  0  0  0  0  0
    6.0000    0.0000    0.0000 O   0  0  0  0  0  0  0  0  0  0  0  0
  1  2  1  0
  1  3  1  0
  3  4  1  0
  4  5  1  0
  5  6  2  0
  6  7  1  0
  7  8  2  0
  8  9  1  0
  9 10  2  0
  1 11  2  0
 10  5  1  0
M  END
>  <Name>  (65) 
3-Phenylpropanoic_acid_(Hydrocinnamic_acid)

>  <logK_Eu_z=3.0_T=25_I=0.1>  (65) 
2.18

$$$$

     RDKit          2D

  5  4  0  0  0  0  0  0  0  0999 V2000
    2.5981   -0.0000    0.0000 O   0  0  0  0  0  0  0  0  0  0  0  0
    1.2990    0.7500    0.0000 C   0  0  0  0  0  0  0  0  0  0  0  0
    0.0000    0.0000    0.0000 C   0  0  0  0  0  0  0  0  0  0  0  0
   -1.2990    0.7500    0.0000 Cl  0  0  0  0  0  0  0  0  0  0  0  0
    1.2990    2.2500    0.0000 O   0  0  0  0  0  0  0  0  0  0  0  0
  1  2  1  0
  2  3  1  0
  3  4  1  0
  2  5  2  0
M  END
>  <Name>  (66) 
Chloroacetic_acid

>  <logK_Eu_z=3.0_T=25_I=0.1>  (66) 
1.38

>  <logK_Eu_z=3.0_T=25_I=2.0>  (66) 
1.08

$$$$

     RDKit          2D

  6  5  0  0  0  0  0  0  0  0999 V2000
   -1.2990    0.7500    0.0000 O   0  0  0  0  0  0  0  0  0  0  0  0
    0.0000    0.0000    0.0000 C   0  0  0  0  0  0  0  0  0  0  0  0
    1.2990    0.7500    0.0000 C   0  0  0  0  0  0  0  0  0  0  0  0
    2.5981   -0.0000    0.0000 Cl  0  0  0  0  0  0  0  0  0  0  0  0
    1.2990    2.2500    0.0000 Cl  0  0  0  0  0  0  0  0  0  0  0  0
   -0.0000   -1.5000    0.0000 O   0  0  0  0  0  0  0  0  0  0  0  0
  1  2  1  0
  2  3  1  0
  3  4  1  0
  3  5  1  0
  2  6  2  0
M  END
>  <Name>  (67) 
Dichloroacetic_acid

>  <logK_Eu_z=3.0_T=25_I=2.0>  (67) 
0.76

$$$$

     RDKit          2D

  7  6  0  0  0  0  0  0  0  0999 V2000
    2.5981    1.5000    0.0000 Cl  0  0  0  0  0  0  0  0  0  0  0  0
    1.2990    0.7500    0.0000 C   0  0  0  0  0  0  0  0  0  0  0  0
    2.0490   -0.5490    0.0000 Cl  0  0  0  0  0  0  0  0  0  0  0  0
    0.5490    2.0490    0.0000 Cl  0  0  0  0  0  0  0  0  0  0  0  0
    0.0000    0.0000    0.0000 C   0  0  0  0  0  0  0  0  0  0  0  0
   -1.2990    0.7500    0.0000 O   0  0  0  0  0  0  0  0  0  0  0  0
   -0.0000   -1.5000    0.0000 O   0  0  0  0  0  0  0  0  0  0  0  0
  1  2  1  0
  2  3  1  0
  2  4  1  0
  2  5  1  0
  5  6  1  0
  5  7  2  0
M  END
>  <Name>  (68) 
Trichloroacetic_acid

>  <logK_Eu_z=3.0_T=25_I=2.0>  (68) 
0.32

$$$$

     RDKit          2D

  6  5  0  0  0  0  0  0  0  0999 V2000
    1.2990    2.2500    0.0000 O   0  0  0  0  0  0  0  0  0  0  0  0
    1.2990    0.7500    0.0000 C   0  0  0  0  0  0  0  0  0  0  0  0
    0.0000    0.0000    0.0000 C   0  0  0  0  0  0  0  0  0  0  0  0
   -1.2990    0.7500    0.0000 C   0  0  0  0  0  0  0  0  0  0  0  0
   -2.5981    0.0000    0.0000 Cl  0  0  0  0  0  0  0  0  0  0  0  0
    2.5981   -0.0000    0.0000 O   0  0  0  0  0  0  0  0  0  0  0  0
  1  2  2  0
  2  3  1  0
  3  4  1  0
  4  5  1  0
  2  6  1  0
M  END
>  <Name>  (69) 
3-Chloropropanoic_acid

>  <logK_Eu_z=3.0_T=25_I=2.0>  (69) 
1.61

$$$$

     RDKit          2D

  5  4  0  0  0  0  0  0  0  0999 V2000
    1.2990    2.2500    0.0000 O   0  0  0  0  0  0  0  0  0  0  0  0
    1.2990    0.7500    0.0000 C   0  0  0  0  0  0  0  0  0  0  0  0
    0.0000    0.0000    0.0000 C   0  0  0  0  0  0  0  0  0  0  0  0
   -1.2990    0.7500    0.0000 I   0  0  0  0  0  0  0  0  0  0  0  0
    2.5981   -0.0000    0.0000 O   0  0  0  0  0  0  0  0  0  0  0  0
  1  2  2  0
  2  3  1  0
  3  4  1  0
  2  5  1  0
M  END
>  <Name>  (70) 
Iodoacetic_acid

>  <logK_Eu_z=3.0_T=25_I=0.1>  (70) 
1.48

$$$$

     RDKit          2D

 10 10  0  0  0  0  0  0  0  0999 V2000
    1.5000    0.0000    0.0000 C   0  0  0  0  0  0  0  0  0  0  0  0
    3.0000    0.0000    0.0000 C   0  0  0  0  0  0  0  0  0  0  0  0
    3.7500    1.2990    0.0000 O   0  0  0  0  0  0  0  0  0  0  0  0
    3.7500   -1.2990    0.0000 O   0  0  0  0  0  0  0  0  0  0  0  0
    0.7500   -1.2990    0.0000 C   0  0  0  0  0  0  0  0  0  0  0  0
   -0.7500   -1.2990    0.0000 C   0  0  0  0  0  0  0  0  0  0  0  0
   -1.5000    0.0000    0.0000 C   0  0  0  0  0  0  0  0  0  0  0  0
   -0.7500    1.2990    0.0000 C   0  0  0  0  0  0  0  0  0  0  0  0
   -1.5000    2.5981    0.0000 F   0  0  0  0  0  0  0  0  0  0  0  0
    0.7500    1.2990    0.0000 C   0  0  0  0  0  0  0  0  0  0  0  0
  1  2  1  0
  2  3  2  0
  2  4  1  0
  1  5  2  0
  5  6  1  0
  6  7  2  0
  7  8  1  0
  8  9  1  0
  8 10  2  0
 10  1  1  0
M  END
>  <Name>  (71) 
3-Fluorobenzoic_acid

>  <logK_Eu_z=3.0_T=25_I=0.1>  (71) 
1.88

$$$$

     RDKit          2D

 10 10  0  0  0  0  0  0  0  0999 V2000
    1.5000    0.0000    0.0000 C   0  0  0  0  0  0  0  0  0  0  0  0
    0.7500   -1.2990    0.0000 C   0  0  0  0  0  0  0  0  0  0  0  0
    1.5000   -2.5981    0.0000 C   0  0  0  0  0  0  0  0  0  0  0  0
    0.7500   -3.8971    0.0000 O   0  0  0  0  0  0  0  0  0  0  0  0
    3.0000   -2.5981    0.0000 O   0  0  0  0  0  0  0  0  0  0  0  0
   -0.7500   -1.2990    0.0000 C   0  0  0  0  0  0  0  0  0  0  0  0
   -1.5000    0.0000    0.0000 C   0  0  0  0  0  0  0  0  0  0  0  0
   -0.7500    1.2990    0.0000 C   0  0  0  0  0  0  0  0  0  0  0  0
   -1.5000    2.5981    0.0000 F   0  0  0  0  0  0  0  0  0  0  0  0
    0.7500    1.2990    0.0000 C   0  0  0  0  0  0  0  0  0  0  0  0
  1  2  2  0
  2  3  1  0
  3  4  1  0
  3  5  2  0
  2  6  1  0
  6  7  2  0
  7  8  1  0
  8  9  1  0
  8 10  2  0
 10  1  1  0
M  END
>  <Name>  (72) 
4-Fluorobenzoic_acid

>  <logK_Eu_z=3.0_T=25_I=0.1>  (72) 
2.08

$$$$

     RDKit          2D

 12 12  0  0  0  0  0  0  0  0999 V2000
    3.0000    0.0000    0.0000 C   0  0  0  0  0  0  0  0  0  0  0  0
    1.5000    0.0000    0.0000 C   0  0  0  0  0  0  0  0  0  0  0  0
    0.7500   -1.2990    0.0000 C   0  0  0  0  0  0  0  0  0  0  0  0
   -0.7500   -1.2990    0.0000 C   0  0  0  0  0  0  0  0  0  0  0  0
   -1.5000   -2.5981    0.0000 N   0  0  0  0  0  4  0  0  0  0  0  0
   -3.0000   -2.5981    0.0000 O   0  0  0  0  0  1  0  0  0  0  0  0
   -0.7500   -3.8971    0.0000 O   0  0  0  0  0  0  0  0  0  0  0  0
   -1.5000    0.0000    0.0000 C   0  0  0  0  0  0  0  0  0  0  0  0
   -0.7500    1.2990    0.0000 C   0  0  0  0  0  0  0  0  0  0  0  0
    0.7500    1.2990    0.0000 C   0  0  0  0  0  0  0  0  0  0  0  0
    3.7500   -1.2990    0.0000 O   0  0  0  0  0  0  0  0  0  0  0  0
    3.7500    1.2990    0.0000 O   0  0  0  0  0  0  0  0  0  0  0  0
  1  2  1  0
  2  3  2  0
  3  4  1  0
  4  5  1  0
  5  6  1  0
  5  7  2  0
  4  8  2  0
  8  9  1  0
  9 10  2  0
  1 11  1  0
  1 12  2  0
 10  2  1  0
M  CHG  2   5   1   6  -1
M  END
>  <Name>  (73) 
3-Nitrobenzoic_acid

>  <logK_Eu_z=3.0_T=25_I=0.1>  (73) 
1.76

$$$$

     RDKit          2D

  5  4  0  0  0  0  0  0  0  0999 V2000
    1.2990    0.7500    0.0000 C   0  0  0  0  0  0  0  0  0  0  0  0
    0.0000    0.0000    0.0000 C   0  0  0  0  0  0  0  0  0  0  0  0
   -1.2990    0.7500    0.0000 O   0  0  0  0  0  0  0  0  0  0  0  0
    2.5981   -0.0000    0.0000 O   0  0  0  0  0  0  0  0  0  0  0  0
    1.2990    2.2500    0.0000 O   0  0  0  0  0  0  0  0  0  0  0  0
  1  2  1  0
  2  3  1  0
  1  4  1  0
  1  5  2  0
M  END
>  <Name>  (74) 
Hydroxyacetic_acid_(Glycolic_acid)

>  <logK_Eu_z=3.0_T=20_I=0.1>  (74) 
2.93

>  <logK_Eu_z=3.0_T=20_I=0.5>  (74) 
2.57

>  <logK_Eu_z=3.0_T=25_I=1.0>  (74) 
2.44

>  <logK_Eu_z=3.0_T=25_I=2.0>  (74) 
2.52

>  <logK_Eu_z=3.0_T=25_I=0.0>  (74) 
3.49

$$$$

     RDKit          2D

  7  6  0  0  0  0  0  0  0  0999 V2000
    3.8971    0.7500    0.0000 C   0  0  0  0  0  0  0  0  0  0  0  0
    2.5981   -0.0000    0.0000 C   0  0  0  0  0  0  0  0  0  0  0  0
    2.5981   -1.5000    0.0000 O   0  0  0  0  0  0  0  0  0  0  0  0
    1.2990    0.7500    0.0000 C   0  0  0  0  0  0  0  0  0  0  0  0
    0.0000    0.0000    0.0000 C   0  0  0  0  0  0  0  0  0  0  0  0
    5.1962   -0.0000    0.0000 O   0  0  0  0  0  0  0  0  0  0  0  0
    3.8971    2.2500    0.0000 O   0  0  0  0  0  0  0  0  0  0  0  0
  1  2  1  0
  2  3  1  0
  2  4  1  0
  4  5  1  0
  1  6  1  0
  1  7  2  0
M  END
>  <Name>  (75) 
DL-2-Hydroxybutanoic_acid

>  <logK_Eu_z=3.0_T=25_I=0.1>  (75) 
2.76

$$$$

     RDKit          2D

  8  7  0  0  0  0  0  0  0  0999 V2000
    0.0000    0.0000    0.0000 C   0  0  0  0  0  0  0  0  0  0  0  0
    1.2990    0.7500    0.0000 C   0  0  0  0  0  0  0  0  0  0  0  0
    2.5981   -0.0000    0.0000 C   0  0  0  0  0  0  0  0  0  0  0  0
    3.8971    0.7500    0.0000 C   0  0  0  0  0  0  0  0  0  0  0  0
    5.1962   -0.0000    0.0000 C   0  0  0  0  0  0  0  0  0  0  0  0
    5.1962   -1.5000    0.0000 O   0  0  0  0  0  0  0  0  0  0  0  0
    6.4952    0.7500    0.0000 O   0  0  0  0  0  0  0  0  0  0  0  0
    3.8971    2.2500    0.0000 O   0  0  0  0  0  0  0  0  0  0  0  0
  1  2  1  0
  2  3  1  0
  3  4  1  0
  4  5  1  0
  5  6  2  0
  5  7  1  0
  4  8  1  0
M  END
>  <Name>  (76) 
DL-2-Hydroxypentanoic_acid

>  <logK_Eu_z=3.0_T=25_I=1.0>  (76) 
2.43

$$$$

     RDKit          2D

  8  7  0  0  0  0  0  0  0  0999 V2000
    2.5981    4.5000    0.0000 O   0  0  0  0  0  0  0  0  0  0  0  0
    2.5981    3.0000    0.0000 C   0  0  0  0  0  0  0  0  0  0  0  0
    3.8971    2.2500    0.0000 O   0  0  0  0  0  0  0  0  0  0  0  0
    1.2990    2.2500    0.0000 C   0  0  0  0  0  0  0  0  0  0  0  0
   -0.0000    3.0000    0.0000 O   0  0  0  0  0  0  0  0  0  0  0  0
    1.2990    0.7500    0.0000 C   0  0  0  0  0  0  0  0  0  0  0  0
    0.0000    0.0000    0.0000 C   0  0  0  0  0  0  0  0  0  0  0  0
    2.5981   -0.0000    0.0000 C   0  0  0  0  0  0  0  0  0  0  0  0
  1  2  1  0
  2  3  2  0
  2  4  1  0
  4  5  1  0
  4  6  1  0
  6  7  1  0
  6  8  1  0
M  END
>  <Name>  (77) 
DL-2-Hydroxy-3-methylbutanoic_acid

>  <logK_Eu_z=3.0_T=25_I=0.1>  (77) 
2.61

$$$$

     RDKit          2D

  9  8  0  0  0  0  0  0  0  0999 V2000
    1.2990    3.3481    0.0000 C   0  0  0  0  0  0  0  0  0  0  0  0
    2.7990    3.3481    0.0000 O   0  0  0  0  0  0  0  0  0  0  0  0
    0.5490    4.6471    0.0000 O   0  0  0  0  0  0  0  0  0  0  0  0
    0.5490    2.0490    0.0000 C   0  0  0  0  0  0  0  0  0  0  0  0
   -0.9510    2.0490    0.0000 O   0  0  0  0  0  0  0  0  0  0  0  0
    1.2990    0.7500    0.0000 C   0  0  0  0  0  0  0  0  0  0  0  0
    0.0000    0.0000    0.0000 C   0  0  0  0  0  0  0  0  0  0  0  0
    2.5981    1.5000    0.0000 C   0  0  0  0  0  0  0  0  0  0  0  0
    2.0490   -0.5490    0.0000 C   0  0  0  0  0  0  0  0  0  0  0  0
  1  2  2  0
  1  3  1  0
  1  4  1  0
  4  5  1  0
  4  6  1  0
  6  7  1  0
  6  8  1  0
  6  9  1  0
M  END
>  <Name>  (78) 
DL-2-Hydroxy-3,3-dimethylbutanoic_acid

>  <logK_Eu_z=3.0_T=25_I=0.1>  (78) 
2.52

$$$$

     RDKit          2D

  7  6  0  0  0  0  0  0  0  0999 V2000
    2.0490   -0.5490    0.0000 C   0  0  0  0  0  0  0  0  0  0  0  0
    1.2990    0.7500    0.0000 C   0  0  0  0  0  0  0  0  0  0  0  0
    0.5490    2.0490    0.0000 O   0  0  0  0  0  0  0  0  0  0  0  0
    0.0000    0.0000    0.0000 C   0  0  0  0  0  0  0  0  0  0  0  0
    2.5981    1.5000    0.0000 C   0  0  0  0  0  0  0  0  0  0  0  0
    3.5490   -0.5490    0.0000 O   0  0  0  0  0  0  0  0  0  0  0  0
    1.2990   -1.8481    0.0000 O   0  0  0  0  0  0  0  0  0  0  0  0
  1  2  1  0
  2  3  1  0
  2  4  1  0
  2  5  1  0
  1  6  1  0
  1  7  2  0
M  END
>  <Name>  (79) 
2-Hydroxy-2-methylpropanoic_acid

>  <logK_Eu_z=3.0_T=25_I=0.1>  (79) 
2.98

>  <logK_Eu_z=3.0_T=25_I=0.5>  (79) 
2.71

>  <logK_Eu_z=3.0_T=25_I=2.0>  (79) 
2.7

$$$$

     RDKit          2D

  9  8  0  0  0  0  0  0  0  0999 V2000
    1.8481   -1.2990    0.0000 O   0  0  0  0  0  0  0  0  0  0  0  0
    2.5981   -0.0000    0.0000 C   0  0  0  0  0  0  0  0  0  0  0  0
    3.3481    1.2990    0.0000 C   0  0  0  0  0  0  0  0  0  0  0  0
    2.5981    2.5981    0.0000 O   0  0  0  0  0  0  0  0  0  0  0  0
    4.8481    1.2990    0.0000 O   0  0  0  0  0  0  0  0  0  0  0  0
    1.2990    0.7500    0.0000 C   0  0  0  0  0  0  0  0  0  0  0  0
    0.0000    0.0000    0.0000 C   0  0  0  0  0  0  0  0  0  0  0  0
    3.8971   -0.7500    0.0000 C   0  0  0  0  0  0  0  0  0  0  0  0
    3.8971   -2.2500    0.0000 C   0  0  0  0  0  0  0  0  0  0  0  0
  1  2  1  0
  2  3  1  0
  3  4  2  0
  3  5  1  0
  2  6  1  0
  6  7  1  0
  2  8  1  0
  8  9  1  0
M  END
>  <Name>  (80) 
2-Hydroxy-2-ethylbutanoic_acid

>  <logK_Eu_z=3.0_T=25_I=0.1>  (80) 
2.84

$$$$

     RDKit          2D

 11 10  0  0  0  0  0  0  0  0999 V2000
    3.1471    2.0490    0.0000 O   0  0  0  0  0  0  0  0  0  0  0  0
    3.8971    0.7500    0.0000 C   0  0  0  0  0  0  0  0  0  0  0  0
    4.6471   -0.5490    0.0000 C   0  0  0  0  0  0  0  0  0  0  0  0
    3.8971   -1.8481    0.0000 O   0  0  0  0  0  0  0  0  0  0  0  0
    6.1471   -0.5490    0.0000 O   0  0  0  0  0  0  0  0  0  0  0  0
    2.5981   -0.0000    0.0000 C   0  0  0  0  0  0  0  0  0  0  0  0
    1.2990    0.7500    0.0000 C   0  0  0  0  0  0  0  0  0  0  0  0
    0.0000    0.0000    0.0000 C   0  0  0  0  0  0  0  0  0  0  0  0
    5.1962    1.5000    0.0000 C   0  0  0  0  0  0  0  0  0  0  0  0
    5.1962    3.0000    0.0000 C   0  0  0  0  0  0  0  0  0  0  0  0
    6.4952    3.7500    0.0000 C   0  0  0  0  0  0  0  0  0  0  0  0
  1  2  1  0
  2  3  1  0
  3  4  2  0
  3  5  1  0
  2  6  1  0
  6  7  1  0
  7  8  1  0
  2  9  1  0
  9 10  1  0
 10 11  1  0
M  END
>  <Name>  (81) 
2-Hydroxy-2-propylpentanoic_acid

>  <logK_Eu_z=3.0_T=25_I=1.0>  (81) 
2.81

$$$$

     RDKit          2D

  9  9  0  0  0  0  0  0  0  0999 V2000
    2.0788    2.4709    0.0000 O   0  0  0  0  0  0  0  0  0  0  0  0
    2.3907    1.0037    0.0000 C   0  0  0  0  0  0  0  0  0  0  0  0
    1.2760    0.0000    0.0000 C   0  0  0  0  0  0  0  0  0  0  0  0
    0.3943    1.2135    0.0000 C   0  0  0  0  0  0  0  0  0  0  0  0
   -1.0323    0.7500    0.0000 C   0  0  0  0  0  0  0  0  0  0  0  0
   -1.0323   -0.7500    0.0000 C   0  0  0  0  0  0  0  0  0  0  0  0
    0.3943   -1.2135    0.0000 C   0  0  0  0  0  0  0  0  0  0  0  0
    2.3907   -1.0037    0.0000 O   0  0  0  0  0  0  0  0  0  0  0  0
    3.8173    0.5402    0.0000 O   0  0  0  0  0  0  0  0  0  0  0  0
  1  2  2  0
  2  3  1  0
  3  4  1  0
  4  5  1  0
  5  6  1  0
  6  7  1  0
  3  8  1  0
  2  9  1  0
  7  3  1  0
M  END
>  <Name>  (82) 
1-Hydroxycyclopentanecarboxylic_acid

>  <logK_Eu_z=3.0_T=25_I=0.1>  (82) 
2.8

$$$$

     RDKit          2D

 10 10  0  0  0  0  0  0  0  0999 V2000
    2.6491   -0.9642    0.0000 O   0  0  0  0  0  0  0  0  0  0  0  0
    1.5000    0.0000    0.0000 C   0  0  0  0  0  0  0  0  0  0  0  0
    2.6491    0.9642    0.0000 C   0  0  0  0  0  0  0  0  0  0  0  0
    2.3886    2.4414    0.0000 O   0  0  0  0  0  0  0  0  0  0  0  0
    4.0586    0.4512    0.0000 O   0  0  0  0  0  0  0  0  0  0  0  0
    0.7500   -1.2990    0.0000 C   0  0  0  0  0  0  0  0  0  0  0  0
   -0.7500   -1.2990    0.0000 C   0  0  0  0  0  0  0  0  0  0  0  0
   -1.5000    0.0000    0.0000 C   0  0  0  0  0  0  0  0  0  0  0  0
   -0.7500    1.2990    0.0000 C   0  0  0  0  0  0  0  0  0  0  0  0
    0.7500    1.2990    0.0000 C   0  0  0  0  0  0  0  0  0  0  0  0
  1  2  1  0
  2  3  1  0
  3  4  2  0
  3  5  1  0
  2  6  1  0
  6  7  1  0
  7  8  1  0
  8  9  1  0
  9 10  1  0
 10  2  1  0
M  END
>  <Name>  (83) 
1-Hydroxycyclohexanecarboxylic_acid

>  <logK_Eu_z=3.0_T=25_I=0.1>  (83) 
2.48

>  <logK_Eu_z=3.0_T=25_I=1.0>  (83) 
2.21

$$$$

     RDKit          2D

 11 11  0  0  0  0  0  0  0  0999 V2000
    1.5000    0.0000    0.0000 C   0  0  0  0  0  0  0  0  0  0  0  0
    0.7500   -1.2990    0.0000 C   0  0  0  0  0  0  0  0  0  0  0  0
   -0.7500   -1.2990    0.0000 C   0  0  0  0  0  0  0  0  0  0  0  0
   -1.5000   -2.5981    0.0000 C   0  0  0  0  0  0  0  0  0  0  0  0
   -3.0000   -2.5981    0.0000 C   0  0  0  0  0  0  0  0  0  0  0  0
   -3.7500   -3.8971    0.0000 O   0  0  0  0  0  0  0  0  0  0  0  0
   -3.7500   -1.2990    0.0000 O   0  0  0  0  0  0  0  0  0  0  0  0
   -0.7500   -3.8971    0.0000 O   0  0  0  0  0  0  0  0  0  0  0  0
   -1.5000    0.0000    0.0000 C   0  0  0  0  0  0  0  0  0  0  0  0
   -0.7500    1.2990    0.0000 C   0  0  0  0  0  0  0  0  0  0  0  0
    0.7500    1.2990    0.0000 C   0  0  0  0  0  0  0  0  0  0  0  0
  1  2  2  0
  2  3  1  0
  3  4  1  0
  4  5  1  0
  5  6  1  0
  5  7  2  0
  4  8  1  0
  3  9  2  0
  9 10  1  0
 10 11  2  0
 11  1  1  0
M  END
>  <Name>  (84) 
L-Phenyl(hydroxy)acetic_acid_(Mandelic_acid)

>  <logK_Eu_z=3.0_T=25_I=0.1>  (84) 
2.54

>  <logK_Eu_z=3.0_T=25_I=2.0>  (84) 
2.25

$$$$

     RDKit          2D

 12 12  0  0  0  0  0  0  0  0999 V2000
    4.5000    0.0000    0.0000 C   0  0  0  0  0  0  0  0  0  0  0  0
    3.0000    0.0000    0.0000 C   0  0  0  0  0  0  0  0  0  0  0  0
    3.0000    1.5000    0.0000 C   0  0  0  0  0  0  0  0  0  0  0  0
    1.7010    2.2500    0.0000 O   0  0  0  0  0  0  0  0  0  0  0  0
    4.2990    2.2500    0.0000 O   0  0  0  0  0  0  0  0  0  0  0  0
    1.5000    0.0000    0.0000 C   0  0  0  0  0  0  0  0  0  0  0  0
    0.7500   -1.2990    0.0000 C   0  0  0  0  0  0  0  0  0  0  0  0
   -0.7500   -1.2990    0.0000 C   0  0  0  0  0  0  0  0  0  0  0  0
   -1.5000    0.0000    0.0000 C   0  0  0  0  0  0  0  0  0  0  0  0
   -0.7500    1.2990    0.0000 C   0  0  0  0  0  0  0  0  0  0  0  0
    0.7500    1.2990    0.0000 C   0  0  0  0  0  0  0  0  0  0  0  0
    3.0000   -1.5000    0.0000 O   0  0  0  0  0  0  0  0  0  0  0  0
  1  2  1  0
  2  3  1  0
  3  4  2  0
  3  5  1  0
  2  6  1  0
  6  7  2  0
  7  8  1  0
  8  9  2  0
  9 10  1  0
 10 11  2  0
  2 12  1  0
 11  6  1  0
M  END
>  <Name>  (85) 
DL-2-Phenyl-2-hydroxypropanoic_acid_(Atrolactic_acid)

>  <logK_Eu_z=3.0_T=25_I=1.0>  (85) 
2.55

$$$$

     RDKit          2D

  9  8  0  0  0  0  0  0  0  0999 V2000
    0.5490    2.0490    0.0000 O   0  0  0  0  0  0  0  0  0  0  0  0
    1.2990    0.7500    0.0000 C   0  0  0  0  0  0  0  0  0  0  0  0
    2.0490   -0.5490    0.0000 C   0  0  0  0  0  0  0  0  0  0  0  0
    1.2990   -1.8481    0.0000 O   0  0  0  0  0  0  0  0  0  0  0  0
    3.5490   -0.5490    0.0000 O   0  0  0  0  0  0  0  0  0  0  0  0
    0.0000    0.0000    0.0000 C   0  0  0  0  0  0  0  0  0  0  0  0
    2.5981    1.5000    0.0000 C   0  0  0  0  0  0  0  0  0  0  0  0
    2.5981    3.0000    0.0000 C   0  0  0  0  0  0  0  0  0  0  0  0
    3.8971    0.7500    0.0000 O   0  0  0  0  0  0  0  0  0  0  0  0
  1  2  1  0
  2  3  1  0
  3  4  2  0
  3  5  1  0
  2  6  1  0
  2  7  1  0
  7  8  1  0
  7  9  1  0
M  END
>  <Name>  (86) 
DL-2,3-Dihydroxy-2-methylbutanoic_acid

>  <logK_Eu_z=3.0_T=25_I=0.1>  (86) 
3.13

>  <logK_Eu_z=3.0_T=25_I=0.5>  (86) 
3.03

$$$$

     RDKit          2D

  9  8  0  0  0  0  0  0  0  0999 V2000
    0.5490    2.0490    0.0000 O   0  0  0  0  0  0  0  0  0  0  0  0
    1.2990    0.7500    0.0000 C   0  0  0  0  0  0  0  0  0  0  0  0
    2.0490   -0.5490    0.0000 C   0  0  0  0  0  0  0  0  0  0  0  0
    1.2990   -1.8481    0.0000 O   0  0  0  0  0  0  0  0  0  0  0  0
    3.5490   -0.5490    0.0000 O   0  0  0  0  0  0  0  0  0  0  0  0
    0.0000    0.0000    0.0000 C   0  0  0  0  0  0  0  0  0  0  0  0
   -1.2990    0.7500    0.0000 O   0  0  0  0  0  0  0  0  0  0  0  0
    2.5981    1.5000    0.0000 C   0  0  0  0  0  0  0  0  0  0  0  0
    2.5981    3.0000    0.0000 O   0  0  0  0  0  0  0  0  0  0  0  0
  1  2  1  0
  2  3  1  0
  3  4  2  0
  3  5  1  0
  2  6  1  0
  6  7  1  0
  2  8  1  0
  8  9  1  0
M  END
>  <Name>  (87) 
2,3-Dihydroxy-2-(hydroxymethyl)propanoic_acid

>  <logK_Eu_z=3.0_T=25_I=0.1>  (87) 
3.11

>  <logK_Eu_z=3.0_T=25_I=0.5>  (87) 
2.8

$$$$

     RDKit          2D

 13 12  0  0  0  0  0  0  0  0999 V2000
    3.8971    0.7500    0.0000 C   0  0  0  0  0  0  0  0  0  0  0  0
    3.8971    2.2500    0.0000 O   0  0  0  0  0  0  0  0  0  0  0  0
    5.1962   -0.0000    0.0000 C   0  0  0  0  0  0  0  0  0  0  0  0
    5.1962   -1.5000    0.0000 O   0  0  0  0  0  0  0  0  0  0  0  0
    6.4952    0.7500    0.0000 C   0  0  0  0  0  0  0  0  0  0  0  0
    6.4952    2.2500    0.0000 O   0  0  0  0  0  0  0  0  0  0  0  0
    7.7942   -0.0000    0.0000 O   0  0  0  0  0  0  0  0  0  0  0  0
    2.5981   -0.0000    0.0000 C   0  0  0  0  0  0  0  0  0  0  0  0
    2.5981   -1.5000    0.0000 O   0  0  0  0  0  0  0  0  0  0  0  0
    1.2990    0.7500    0.0000 C   0  0  0  0  0  0  0  0  0  0  0  0
    1.2990    2.2500    0.0000 O   0  0  0  0  0  0  0  0  0  0  0  0
    0.0000    0.0000    0.0000 C   0  0  0  0  0  0  0  0  0  0  0  0
   -1.2990    0.7500    0.0000 O   0  0  0  0  0  0  0  0  0  0  0  0
  1  2  1  6
  1  3  1  0
  3  4  1  6
  3  5  1  0
  5  6  2  0
  5  7  1  0
  1  8  1  0
  8  9  1  6
  8 10  1  0
 10 11  1  1
 10 12  1  0
 12 13  1  0
M  END
>  <Name>  (88) 
D-gluco-Pentahydroxyhexanoic_acid_(D-Gluconic_acid)

>  <logK_Eu_z=3.0_T=25_I=0.1>  (88) 
2.74

$$$$

     RDKit          2D

 13 13  0  0  0  0  0  0  0  0999 V2000
    1.5000    0.0000    0.0000 C   0  0  0  0  0  0  0  0  0  0  0  0
    0.7500   -1.2990    0.0000 C   0  0  0  0  0  0  0  0  0  0  0  0
    0.4895   -2.7762    0.0000 O   0  0  0  0  0  0  0  0  0  0  0  0
    2.1595   -1.8121    0.0000 C   0  0  0  0  0  0  0  0  0  0  0  0
    2.4200   -3.2893    0.0000 O   0  0  0  0  0  1  0  0  0  0  0  0
    3.3086   -0.8479    0.0000 O   0  0  0  0  0  0  0  0  0  0  0  0
   -0.7500   -1.2990    0.0000 C   0  0  0  0  0  0  0  0  0  0  0  0
   -1.5000    0.0000    0.0000 C   0  0  0  0  0  0  0  0  0  0  0  0
   -3.0000    0.0000    0.0000 O   0  0  0  0  0  0  0  0  0  0  0  0
   -0.7500    1.2990    0.0000 C   0  0  0  0  0  0  0  0  0  0  0  0
   -1.5000    2.5981    0.0000 O   0  0  0  0  0  0  0  0  0  0  0  0
    0.7500    1.2990    0.0000 C   0  0  0  0  0  0  0  0  0  0  0  0
    1.5000    2.5981    0.0000 O   0  0  0  0  0  0  0  0  0  0  0  0
  1  2  1  0
  2  3  1  0
  2  4  1  0
  4  5  1  0
  4  6  2  0
  2  7  1  0
  7  8  1  0
  8  9  1  1
  8 10  1  0
 10 11  1  0
 10 12  1  0
 12 13  1  6
 12  1  1  0
M  CHG  1   5  -1
M  END
>  <Name>  (89) 
(1R,3R,4R,5R)-(-)-1,3,4,5-Tetrahydroxcyclohexanecarboxylic_acid_(Quinic_acid)

>  <logK_Eu_z=3.0_T=25_I=0.1>  (89) 
2.67

>  <logK_Eu_z=3.0_T=25_I=1.0>  (89) 
2.38

$$$$

     RDKit          2D

  6  5  0  0  0  0  0  0  0  0999 V2000
   -1.2990    0.7500    0.0000 O   0  0  0  0  0  0  0  0  0  0  0  0
    0.0000    0.0000    0.0000 C   0  0  0  0  0  0  0  0  0  0  0  0
    1.2990    0.7500    0.0000 C   0  0  0  0  0  0  0  0  0  0  0  0
    2.5981   -0.0000    0.0000 C   0  0  0  0  0  0  0  0  0  0  0  0
    2.5981   -1.5000    0.0000 O   0  0  0  0  0  0  0  0  0  0  0  0
    3.8971    0.7500    0.0000 O   0  0  0  0  0  0  0  0  0  0  0  0
  1  2  1  0
  2  3  1  0
  3  4  1  0
  4  5  2  0
  4  6  1  0
M  END
>  <Name>  (90) 
3-Hydroxypropanoic_acid

>  <logK_Eu_z=3.0_T=25_I=0.1>  (90) 
2.08

>  <logK_Eu_z=3.0_T=25_I=2.0>  (90) 
1.65

$$$$

     RDKit          2D

  9  8  0  0  0  0  0  0  0  0999 V2000
    0.5490    2.0490    0.0000 C   0  0  0  0  0  0  0  0  0  0  0  0
   -0.9510    2.0490    0.0000 O   0  0  0  0  0  0  0  0  0  0  0  0
    1.2990    3.3481    0.0000 O   0  0  0  0  0  0  0  0  0  0  0  0
    1.2990    0.7500    0.0000 C   0  0  0  0  0  0  0  0  0  0  0  0
    0.0000    0.0000    0.0000 C   0  0  0  0  0  0  0  0  0  0  0  0
    2.5981    1.5000    0.0000 C   0  0  0  0  0  0  0  0  0  0  0  0
    2.5981    3.0000    0.0000 O   0  0  0  0  0  0  0  0  0  0  0  0
    2.0490   -0.5490    0.0000 C   0  0  0  0  0  0  0  0  0  0  0  0
    3.5490   -0.5490    0.0000 O   0  0  0  0  0  0  0  0  0  0  0  0
  1  2  2  0
  1  3  1  0
  1  4  1  0
  4  5  1  0
  4  6  1  0
  6  7  1  0
  4  8  1  0
  8  9  1  0
M  END
>  <Name>  (91) 
2,2-Bis(hydroxymethyl)propanoic_acid

>  <logK_Eu_z=3.0_T=25_I=0.1>  (91) 
2.45

$$$$

     RDKit          2D

  5  4  0  0  0  0  0  0  0  0999 V2000
    1.2990    2.2500    0.0000 O   0  0  0  0  0  0  0  0  0  0  0  0
    1.2990    0.7500    0.0000 C   0  0  0  0  0  0  0  0  0  0  0  0
    0.0000    0.0000    0.0000 C   0  0  0  0  0  0  0  0  0  0  0  0
   -1.2990    0.7500    0.0000 O   0  0  0  0  0  0  0  0  0  0  0  0
    2.5981   -0.0000    0.0000 O   0  0  0  0  0  0  0  0  0  0  0  0
  1  2  2  0
  2  3  1  0
  3  4  2  0
  2  5  1  0
M  END
>  <Name>  (92) 
Oxoacetic_acid_(Glyoxylic_acid)

>  <logK_Eu_z=3.0_T=20_I=0.1>  (92) 
2.5

$$$$

     RDKit          2D

  6  5  0  0  0  0  0  0  0  0999 V2000
    0.0000    0.0000    0.0000 C   0  0  0  0  0  0  0  0  0  0  0  0
    1.2990    0.7500    0.0000 C   0  0  0  0  0  0  0  0  0  0  0  0
    1.2990    2.2500    0.0000 O   0  0  0  0  0  0  0  0  0  0  0  0
    2.5981   -0.0000    0.0000 C   0  0  0  0  0  0  0  0  0  0  0  0
    2.5981   -1.5000    0.0000 O   0  0  0  0  0  0  0  0  0  0  0  0
    3.8971    0.7500    0.0000 O   0  0  0  0  0  0  0  0  0  0  0  0
  1  2  1  0
  2  3  2  0
  2  4  1  0
  4  5  2  0
  4  6  1  0
M  END
>  <Name>  (93) 
2-Oxopropanoic_acid_(Pyruvic_acid)

>  <logK_Eu_z=3.0_T=25_I=2.0>  (93) 
1.88

$$$$

     RDKit          2D

  8  7  0  0  0  0  0  0  0  0999 V2000
    0.0000    0.0000    0.0000 C   0  0  0  0  0  0  0  0  0  0  0  0
    1.2990    0.7500    0.0000 C   0  0  0  0  0  0  0  0  0  0  0  0
    2.5981   -0.0000    0.0000 N   0  0  0  0  0  0  0  0  0  0  0  0
    3.8971    0.7500    0.0000 C   0  0  0  0  0  0  0  0  0  0  0  0
    5.1962   -0.0000    0.0000 C   0  0  0  0  0  0  0  0  0  0  0  0
    5.1962   -1.5000    0.0000 O   0  0  0  0  0  0  0  0  0  0  0  0
    6.4952    0.7500    0.0000 O   0  0  0  0  0  0  0  0  0  0  0  0
    1.2990    2.2500    0.0000 O   0  0  0  0  0  0  0  0  0  0  0  0
  1  2  1  0
  2  3  1  0
  3  4  1  0
  4  5  1  0
  5  6  2  0
  5  7  1  0
  2  8  2  0
M  END
>  <Name>  (94) 
N-Acetylglycine

>  <logK_Eu_z=3.0_T=25_I=1.0>  (94) 
1.95

$$$$

     RDKit          2D

  6  5  0  0  0  0  0  0  0  0999 V2000
    3.8971    0.7500    0.0000 C   0  0  0  0  0  0  0  0  0  0  0  0
    2.5981   -0.0000    0.0000 C   0  0  0  0  0  0  0  0  0  0  0  0
    1.2990    0.7500    0.0000 O   0  0  0  0  0  0  0  0  0  0  0  0
    0.0000    0.0000    0.0000 C   0  0  0  0  0  0  0  0  0  0  0  0
    5.1962   -0.0000    0.0000 O   0  0  0  0  0  0  0  0  0  0  0  0
    3.8971    2.2500    0.0000 O   0  0  0  0  0  0  0  0  0  0  0  0
  1  2  1  0
  2  3  1  0
  3  4  1  0
  1  5  1  0
  1  6  2  0
M  END
>  <Name>  (95) 
Methoxyacetic_acid

>  <logK_Eu_z=3.0_T=20_I=0.1>  (95) 
2.12

$$$$

     RDKit          2D

  8  8  0  0  0  0  0  0  0  0999 V2000
    1.2760    0.0000    0.0000 C   0  0  0  0  0  0  0  0  0  0  0  0
    0.3943    1.2135    0.0000 C   0  0  0  0  0  0  0  0  0  0  0  0
   -1.0323    0.7500    0.0000 C   0  0  0  0  0  0  0  0  0  0  0  0
   -1.0323   -0.7500    0.0000 C   0  0  0  0  0  0  0  0  0  0  0  0
    0.3943   -1.2135    0.0000 O   0  0  0  0  0  0  0  0  0  0  0  0
    2.7760    0.0000    0.0000 C   0  0  0  0  0  0  0  0  0  0  0  0
    3.5260   -1.2990    0.0000 O   0  0  0  0  0  0  0  0  0  0  0  0
    3.5260    1.2990    0.0000 O   0  0  0  0  0  0  0  0  0  0  0  0
  1  2  2  0
  2  3  1  0
  3  4  2  0
  4  5  1  0
  1  6  1  0
  6  7  1  0
  6  8  2  0
  5  1  1  0
M  END
>  <Name>  (96) 
Oxole-2-carboxylic_acid_(2-Furoic_acid)

>  <logK_Eu_z=3.0_T=25_I=2.0>  (96) 
1.67

$$$$

     RDKit          2D

 11 11  0  0  0  0  0  0  0  0999 V2000
    3.7500    1.2990    0.0000 C   0  0  0  0  0  0  0  0  0  0  0  0
    3.0000    0.0000    0.0000 O   0  0  0  0  0  0  0  0  0  0  0  0
    1.5000    0.0000    0.0000 C   0  0  0  0  0  0  0  0  0  0  0  0
    0.7500   -1.2990    0.0000 C   0  0  0  0  0  0  0  0  0  0  0  0
    1.5000   -2.5981    0.0000 C   0  0  0  0  0  0  0  0  0  0  0  0
    0.7500   -3.8971    0.0000 O   0  0  0  0  0  0  0  0  0  0  0  0
    3.0000   -2.5981    0.0000 O   0  0  0  0  0  0  0  0  0  0  0  0
   -0.7500   -1.2990    0.0000 C   0  0  0  0  0  0  0  0  0  0  0  0
   -1.5000    0.0000    0.0000 C   0  0  0  0  0  0  0  0  0  0  0  0
   -0.7500    1.2990    0.0000 C   0  0  0  0  0  0  0  0  0  0  0  0
    0.7500    1.2990    0.0000 C   0  0  0  0  0  0  0  0  0  0  0  0
  1  2  1  0
  2  3  1  0
  3  4  2  0
  4  5  1  0
  5  6  1  0
  5  7  2  0
  4  8  1  0
  8  9  2  0
  9 10  1  0
 10 11  2  0
 11  3  1  0
M  END
>  <Name>  (97) 
2-Methoxybenzoic_acid

>  <logK_Eu_z=3.0_T=25_I=0.1>  (97) 
2.05

$$$$

     RDKit          2D

 11 11  0  0  0  0  0  0  0  0999 V2000
    3.7500   -1.2990    0.0000 C   0  0  0  0  0  0  0  0  0  0  0  0
    3.0000    0.0000    0.0000 O   0  0  0  0  0  0  0  0  0  0  0  0
    1.5000    0.0000    0.0000 C   0  0  0  0  0  0  0  0  0  0  0  0
    0.7500   -1.2990    0.0000 C   0  0  0  0  0  0  0  0  0  0  0  0
   -0.7500   -1.2990    0.0000 C   0  0  0  0  0  0  0  0  0  0  0  0
   -1.5000   -2.5981    0.0000 C   0  0  0  0  0  0  0  0  0  0  0  0
   -3.0000   -2.5981    0.0000 O   0  0  0  0  0  0  0  0  0  0  0  0
   -0.7500   -3.8971    0.0000 O   0  0  0  0  0  0  0  0  0  0  0  0
   -1.5000    0.0000    0.0000 C   0  0  0  0  0  0  0  0  0  0  0  0
   -0.7500    1.2990    0.0000 C   0  0  0  0  0  0  0  0  0  0  0  0
    0.7500    1.2990    0.0000 C   0  0  0  0  0  0  0  0  0  0  0  0
  1  2  1  0
  2  3  1  0
  3  4  2  0
  4  5  1  0
  5  6  1  0
  6  7  1  0
  6  8  2  0
  5  9  2  0
  9 10  1  0
 10 11  2  0
 11  3  1  0
M  END
>  <Name>  (98) 
3-Methoxybenzoic_acid

>  <logK_Eu_z=3.0_T=25_I=0.1>  (98) 
2.21

$$$$

     RDKit          2D

 11 11  0  0  0  0  0  0  0  0999 V2000
    3.7500   -1.2990    0.0000 C   0  0  0  0  0  0  0  0  0  0  0  0
    3.0000    0.0000    0.0000 O   0  0  0  0  0  0  0  0  0  0  0  0
    1.5000    0.0000    0.0000 C   0  0  0  0  0  0  0  0  0  0  0  0
    0.7500   -1.2990    0.0000 C   0  0  0  0  0  0  0  0  0  0  0  0
   -0.7500   -1.2990    0.0000 C   0  0  0  0  0  0  0  0  0  0  0  0
   -1.5000    0.0000    0.0000 C   0  0  0  0  0  0  0  0  0  0  0  0
   -3.0000    0.0000    0.0000 C   0  0  0  0  0  0  0  0  0  0  0  0
   -3.7500    1.2990    0.0000 O   0  0  0  0  0  0  0  0  0  0  0  0
   -3.7500   -1.2990    0.0000 O   0  0  0  0  0  0  0  0  0  0  0  0
   -0.7500    1.2990    0.0000 C   0  0  0  0  0  0  0  0  0  0  0  0
    0.7500    1.2990    0.0000 C   0  0  0  0  0  0  0  0  0  0  0  0
  1  2  1  0
  2  3  1  0
  3  4  2  0
  4  5  1  0
  5  6  2  0
  6  7  1  0
  7  8  1  0
  7  9  2  0
  6 10  1  0
 10 11  2  0
 11  3  1  0
M  END
>  <Name>  (99) 
4-Methoxybenzoic_acid_(p-Anisic_acid)

>  <logK_Eu_z=3.0_T=25_I=0.1>  (99) 
2.14

$$$$

     RDKit          2D

  7  6  0  0  0  0  0  0  0  0999 V2000
    5.1962   -1.5000    0.0000 O   0  0  0  0  0  0  0  0  0  0  0  0
    5.1962   -0.0000    0.0000 C   0  0  0  0  0  0  0  0  0  0  0  0
    3.8971    0.7500    0.0000 C   0  0  0  0  0  0  0  0  0  0  0  0
    2.5981   -0.0000    0.0000 S   0  0  0  0  0  0  0  0  0  0  0  0
    1.2990    0.7500    0.0000 C   0  0  0  0  0  0  0  0  0  0  0  0
    0.0000    0.0000    0.0000 C   0  0  0  0  0  0  0  0  0  0  0  0
    6.4952    0.7500    0.0000 O   0  0  0  0  0  0  0  0  0  0  0  0
  1  2  2  0
  2  3  1  0
  3  4  1  0
  4  5  1  0
  5  6  1  0
  2  7  1  0
M  END
>  <Name>  (100) 
(Ethylthio)acetic_acid

>  <logK_Eu_z=3.0_T=30_I=2.0>  (100) 
1.79

$$$$

     RDKit          2D

  6  5  0  0  0  0  0  0  0  0999 V2000
    0.0000    0.0000    0.0000 C   0  0  0  0  0  0  0  0  0  0  0  0
    1.2990    0.7500    0.0000 C   0  0  0  0  0  0  0  0  0  0  0  0
    2.5981   -0.0000    0.0000 O   0  0  0  0  0  0  0  0  0  0  0  0
    1.2990    2.2500    0.0000 O   0  0  0  0  0  0  0  0  0  0  0  0
   -1.2990    0.7500    0.0000 O   0  0  0  0  0  0  0  0  0  0  0  0
   -0.0000   -1.5000    0.0000 O   0  0  0  0  0  0  0  0  0  0  0  0
  1  2  1  0
  2  3  1  0
  2  4  2  0
  1  5  1  0
  1  6  2  0
M  END
>  <Name>  (101) 
Ethanedioic_acid_(Oxalic_acid)

>  <logK_Eu_z=3.0_T=25_I=0.1>  (101) 
5.36

>  <logK_Eu_z=3.0_T=25_I=0.5>  (101) 
4.83

>  <logK_Eu_z=3.0_T=25_I=0.7>  (101) 
4.89

>  <logK_Eu_z=3.0_T=25_I=1.0>  (101) 
4.77

>  <logK_Eu_z=3.0_T=20_I=1.0>  (101) 
5.04

>  <logK_Eu_z=3.0_T=25_I=0.0>  (101) 
6.52

$$$$

     RDKit          2D

  7  6  0  0  0  0  0  0  0  0999 V2000
    1.2990    2.2500    0.0000 O   0  0  0  0  0  0  0  0  0  0  0  0
    1.2990    0.7500    0.0000 C   0  0  0  0  0  0  0  0  0  0  0  0
    0.0000    0.0000    0.0000 C   0  0  0  0  0  0  0  0  0  0  0  0
   -1.2990    0.7500    0.0000 C   0  0  0  0  0  0  0  0  0  0  0  0
   -1.2990    2.2500    0.0000 O   0  0  0  0  0  0  0  0  0  0  0  0
   -2.5981    0.0000    0.0000 O   0  0  0  0  0  0  0  0  0  0  0  0
    2.5981   -0.0000    0.0000 O   0  0  0  0  0  0  0  0  0  0  0  0
  1  2  2  0
  2  3  1  0
  3  4  1  0
  4  5  2  0
  4  6  1  0
  2  7  1  0
M  END
>  <Name>  (102) 
Propanedioic_acid_(Malonic_acid)

>  <logK_Eu_z=3.0_T=25_I=0.1>  (102) 
4.29

>  <logK_Eu_z=3.0_T=25_I=1.0>  (102) 
3.72

$$$$

     RDKit          2D

  8  7  0  0  0  0  0  0  0  0999 V2000
    3.8971    0.7500    0.0000 O   0  0  0  0  0  0  0  0  0  0  0  0
    2.5981   -0.0000    0.0000 C   0  0  0  0  0  0  0  0  0  0  0  0
    1.2990    0.7500    0.0000 C   0  0  0  0  0  0  0  0  0  0  0  0
    1.2990    2.2500    0.0000 C   0  0  0  0  0  0  0  0  0  0  0  0
   -0.0000    3.0000    0.0000 O   0  0  0  0  0  0  0  0  0  0  0  0
    2.5981    3.0000    0.0000 O   0  0  0  0  0  0  0  0  0  0  0  0
    0.0000    0.0000    0.0000 C   0  0  0  0  0  0  0  0  0  0  0  0
    2.5981   -1.5000    0.0000 O   0  0  0  0  0  0  0  0  0  0  0  0
  1  2  1  0
  2  3  1  0
  3  4  1  0
  4  5  2  0
  4  6  1  0
  3  7  1  0
  2  8  2  0
M  END
>  <Name>  (103) 
Ethane-1,1-dicarboxylic_acid_(Methylmalonic_acid)

>  <logK_Eu_z=3.0_T=25_I=0.1>  (103) 
4.16

$$$$

     RDKit          2D

  9  8  0  0  0  0  0  0  0  0999 V2000
    5.1962   -0.0000    0.0000 O   0  0  0  0  0  0  0  0  0  0  0  0
    3.8971    0.7500    0.0000 C   0  0  0  0  0  0  0  0  0  0  0  0
    2.5981   -0.0000    0.0000 C   0  0  0  0  0  0  0  0  0  0  0  0
    2.5981   -1.5000    0.0000 C   0  0  0  0  0  0  0  0  0  0  0  0
    1.2990   -2.2500    0.0000 O   0  0  0  0  0  0  0  0  0  0  0  0
    3.8971   -2.2500    0.0000 O   0  0  0  0  0  0  0  0  0  0  0  0
    1.2990    0.7500    0.0000 C   0  0  0  0  0  0  0  0  0  0  0  0
    0.0000    0.0000    0.0000 C   0  0  0  0  0  0  0  0  0  0  0  0
    3.8971    2.2500    0.0000 O   0  0  0  0  0  0  0  0  0  0  0  0
  1  2  1  0
  2  3  1  0
  3  4  1  0
  4  5  2  0
  4  6  1  0
  3  7  1  0
  7  8  1  0
  2  9  2  0
M  END
>  <Name>  (104) 
Propane-1,1-dicarboxylic_acid_(Ethylmalonic_acid)

>  <logK_Eu_z=3.0_T=25_I=0.1>  (104) 
4.25

$$$$

     RDKit          2D

 10  9  0  0  0  0  0  0  0  0999 V2000
    6.4952    0.7500    0.0000 O   0  0  0  0  0  0  0  0  0  0  0  0
    5.1962   -0.0000    0.0000 C   0  0  0  0  0  0  0  0  0  0  0  0
    3.8971    0.7500    0.0000 C   0  0  0  0  0  0  0  0  0  0  0  0
    3.8971    2.2500    0.0000 C   0  0  0  0  0  0  0  0  0  0  0  0
    2.5981    3.0000    0.0000 O   0  0  0  0  0  0  0  0  0  0  0  0
    5.1962    3.0000    0.0000 O   0  0  0  0  0  0  0  0  0  0  0  0
    2.5981   -0.0000    0.0000 C   0  0  0  0  0  0  0  0  0  0  0  0
    1.2990    0.7500    0.0000 C   0  0  0  0  0  0  0  0  0  0  0  0
    0.0000    0.0000    0.0000 C   0  0  0  0  0  0  0  0  0  0  0  0
    5.1962   -1.5000    0.0000 O   0  0  0  0  0  0  0  0  0  0  0  0
  1  2  1  0
  2  3  1  0
  3  4  1  0
  4  5  2  0
  4  6  1  0
  3  7  1  0
  7  8  1  0
  8  9  1  0
  2 10  2  0
M  END
>  <Name>  (105) 
Butane-1,1-dicarboxylic_acid_(Propylmalonic_acid)

>  <logK_Eu_z=3.0_T=25_I=0.1>  (105) 
4.29

$$$$

     RDKit          2D

 11 10  0  0  0  0  0  0  0  0999 V2000
    0.0000    0.0000    0.0000 C   0  0  0  0  0  0  0  0  0  0  0  0
    1.2990    0.7500    0.0000 C   0  0  0  0  0  0  0  0  0  0  0  0
    2.5981   -0.0000    0.0000 C   0  0  0  0  0  0  0  0  0  0  0  0
    3.8971    0.7500    0.0000 C   0  0  0  0  0  0  0  0  0  0  0  0
    5.1962   -0.0000    0.0000 C   0  0  0  0  0  0  0  0  0  0  0  0
    6.4952    0.7500    0.0000 C   0  0  0  0  0  0  0  0  0  0  0  0
    6.4952    2.2500    0.0000 O   0  0  0  0  0  0  0  0  0  0  0  0
    7.7942   -0.0000    0.0000 O   0  0  0  0  0  0  0  0  0  0  0  0
    5.1962   -1.5000    0.0000 C   0  0  0  0  0  0  0  0  0  0  0  0
    3.8971   -2.2500    0.0000 O   0  0  0  0  0  0  0  0  0  0  0  0
    6.4952   -2.2500    0.0000 O   0  0  0  0  0  0  0  0  0  0  0  0
  1  2  1  0
  2  3  1  0
  3  4  1  0
  4  5  1  0
  5  6  1  0
  6  7  2  0
  6  8  1  0
  5  9  1  0
  9 10  2  0
  9 11  1  0
M  END
>  <Name>  (106) 
Pentane-1,1-dicarboxylic_acid_(Butylmalonic_acid)

>  <logK_Eu_z=3.0_T=25_I=0.1>  (106) 
4.25

$$$$

     RDKit          2D

 12 11  0  0  0  0  0  0  0  0999 V2000
    9.0933    0.7500    0.0000 O   0  0  0  0  0  0  0  0  0  0  0  0
    7.7942   -0.0000    0.0000 C   0  0  0  0  0  0  0  0  0  0  0  0
    6.4952    0.7500    0.0000 C   0  0  0  0  0  0  0  0  0  0  0  0
    6.4952    2.2500    0.0000 C   0  0  0  0  0  0  0  0  0  0  0  0
    5.1962    3.0000    0.0000 O   0  0  0  0  0  0  0  0  0  0  0  0
    7.7942    3.0000    0.0000 O   0  0  0  0  0  0  0  0  0  0  0  0
    5.1962   -0.0000    0.0000 C   0  0  0  0  0  0  0  0  0  0  0  0
    3.8971    0.7500    0.0000 C   0  0  0  0  0  0  0  0  0  0  0  0
    2.5981   -0.0000    0.0000 C   0  0  0  0  0  0  0  0  0  0  0  0
    1.2990    0.7500    0.0000 C   0  0  0  0  0  0  0  0  0  0  0  0
    0.0000    0.0000    0.0000 C   0  0  0  0  0  0  0  0  0  0  0  0
    7.7942   -1.5000    0.0000 O   0  0  0  0  0  0  0  0  0  0  0  0
  1  2  1  0
  2  3  1  0
  3  4  1  0
  4  5  2  0
  4  6  1  0
  3  7  1  0
  7  8  1  0
  8  9  1  0
  9 10  1  0
 10 11  1  0
  2 12  2  0
M  END
>  <Name>  (107) 
Hexane-1,1-dicarboxylic_acid_(Pentylmalonic_acid)

>  <logK_Eu_z=3.0_T=25_I=0.1>  (107) 
4.32

$$$$

     RDKit          2D

  9  8  0  0  0  0  0  0  0  0999 V2000
    1.2990    0.7500    0.0000 C   0  0  0  0  0  0  0  0  0  0  0  0
    0.0000    0.0000    0.0000 C   0  0  0  0  0  0  0  0  0  0  0  0
    2.5981    1.5000    0.0000 C   0  0  0  0  0  0  0  0  0  0  0  0
    2.0490   -0.5490    0.0000 C   0  0  0  0  0  0  0  0  0  0  0  0
    1.2990   -1.8481    0.0000 O   0  0  0  0  0  0  0  0  0  0  0  0
    3.5490   -0.5490    0.0000 O   0  0  0  0  0  0  0  0  0  0  0  0
    0.5490    2.0490    0.0000 C   0  0  0  0  0  0  0  0  0  0  0  0
   -0.9510    2.0490    0.0000 O   0  0  0  0  0  0  0  0  0  0  0  0
    1.2990    3.3481    0.0000 O   0  0  0  0  0  0  0  0  0  0  0  0
  1  2  1  0
  1  3  1  0
  1  4  1  0
  4  5  2  0
  4  6  1  0
  1  7  1  0
  7  8  2  0
  7  9  1  0
M  END
>  <Name>  (108) 
Propane-2,2-dicarboxylic_acid_(Dimethylmalonic_acid)

>  <logK_Eu_z=3.0_T=25_I=0.1>  (108) 
4.11

$$$$

     RDKit          2D

 11 10  0  0  0  0  0  0  0  0999 V2000
    2.5981    2.5981    0.0000 O   0  0  0  0  0  0  0  0  0  0  0  0
    3.3481    1.2990    0.0000 C   0  0  0  0  0  0  0  0  0  0  0  0
    2.5981   -0.0000    0.0000 C   0  0  0  0  0  0  0  0  0  0  0  0
    1.2990    0.7500    0.0000 C   0  0  0  0  0  0  0  0  0  0  0  0
    0.0000    0.0000    0.0000 C   0  0  0  0  0  0  0  0  0  0  0  0
    3.8971   -0.7500    0.0000 C   0  0  0  0  0  0  0  0  0  0  0  0
    3.8971   -2.2500    0.0000 C   0  0  0  0  0  0  0  0  0  0  0  0
    1.8481   -1.2990    0.0000 C   0  0  0  0  0  0  0  0  0  0  0  0
    2.5981   -2.5981    0.0000 O   0  0  0  0  0  0  0  0  0  0  0  0
    0.3481   -1.2990    0.0000 O   0  0  0  0  0  0  0  0  0  0  0  0
    4.8481    1.2990    0.0000 O   0  0  0  0  0  0  0  0  0  0  0  0
  1  2  2  0
  2  3  1  0
  3  4  1  0
  4  5  1  0
  3  6  1  0
  6  7  1  0
  3  8  1  0
  8  9  1  0
  8 10  2  0
  2 11  1  0
M  END
>  <Name>  (109) 
Pentane-3,3-dicarboxylic_acid_(Diethylmalonic_acid)

>  <logK_Eu_z=3.0_T=25_I=0.1>  (109) 
4.46

$$$$

     RDKit          2D

 13 12  0  0  0  0  0  0  0  0999 V2000
    6.1471   -0.5490    0.0000 O   0  0  0  0  0  0  0  0  0  0  0  0
    4.6471   -0.5490    0.0000 C   0  0  0  0  0  0  0  0  0  0  0  0
    3.8971    0.7500    0.0000 C   0  0  0  0  0  0  0  0  0  0  0  0
    3.1471    2.0490    0.0000 C   0  0  0  0  0  0  0  0  0  0  0  0
    1.6471    2.0490    0.0000 O   0  0  0  0  0  0  0  0  0  0  0  0
    3.8971    3.3481    0.0000 O   0  0  0  0  0  0  0  0  0  0  0  0
    2.5981   -0.0000    0.0000 C   0  0  0  0  0  0  0  0  0  0  0  0
    1.2990    0.7500    0.0000 C   0  0  0  0  0  0  0  0  0  0  0  0
    0.0000    0.0000    0.0000 C   0  0  0  0  0  0  0  0  0  0  0  0
    5.1962    1.5000    0.0000 C   0  0  0  0  0  0  0  0  0  0  0  0
    5.1962    3.0000    0.0000 C   0  0  0  0  0  0  0  0  0  0  0  0
    6.4952    3.7500    0.0000 C   0  0  0  0  0  0  0  0  0  0  0  0
    3.8971   -1.8481    0.0000 O   0  0  0  0  0  0  0  0  0  0  0  0
  1  2  1  0
  2  3  1  0
  3  4  1  0
  4  5  2  0
  4  6  1  0
  3  7  1  0
  7  8  1  0
  8  9  1  0
  3 10  1  0
 10 11  1  0
 11 12  1  0
  2 13  2  0
M  END
>  <Name>  (110) 
Heptane-4,4-dicarboxylic_acid_(Dipropylmalonic_acid)

>  <logK_Eu_z=3.0_T=25_I=0.1>  (110) 
4.57

$$$$

     RDKit          2D

 15 14  0  0  0  0  0  0  0  0999 V2000
    7.4462    1.2990    0.0000 O   0  0  0  0  0  0  0  0  0  0  0  0
    5.9462    1.2990    0.0000 C   0  0  0  0  0  0  0  0  0  0  0  0
    5.1962   -0.0000    0.0000 C   0  0  0  0  0  0  0  0  0  0  0  0
    4.4462   -1.2990    0.0000 C   0  0  0  0  0  0  0  0  0  0  0  0
    2.9462   -1.2990    0.0000 O   0  0  0  0  0  0  0  0  0  0  0  0
    5.1962   -2.5981    0.0000 O   0  0  0  0  0  0  0  0  0  0  0  0
    3.8971    0.7500    0.0000 C   0  0  0  0  0  0  0  0  0  0  0  0
    2.5981   -0.0000    0.0000 C   0  0  0  0  0  0  0  0  0  0  0  0
    1.2990    0.7500    0.0000 C   0  0  0  0  0  0  0  0  0  0  0  0
    0.0000    0.0000    0.0000 C   0  0  0  0  0  0  0  0  0  0  0  0
    6.4952   -0.7500    0.0000 C   0  0  0  0  0  0  0  0  0  0  0  0
    6.4952   -2.2500    0.0000 C   0  0  0  0  0  0  0  0  0  0  0  0
    7.7942   -3.0000    0.0000 C   0  0  0  0  0  0  0  0  0  0  0  0
    7.7942   -4.5000    0.0000 C   0  0  0  0  0  0  0  0  0  0  0  0
    5.1962    2.5981    0.0000 O   0  0  0  0  0  0  0  0  0  0  0  0
  1  2  1  0
  2  3  1  0
  3  4  1  0
  4  5  2  0
  4  6  1  0
  3  7  1  0
  7  8  1  0
  8  9  1  0
  9 10  1  0
  3 11  1  0
 11 12  1  0
 12 13  1  0
 13 14  1  0
  2 15  2  0
M  END
>  <Name>  (111) 
Nonane-5,5-dicarboxylic_acid_(Dibutylmalonic_acid)

>  <logK_Eu_z=3.0_T=25_I=0.1>  (111) 
4.53

$$$$

     RDKit          2D

 10 10  0  0  0  0  0  0  0  0999 V2000
    1.7331    2.5095    0.0000 O   0  0  0  0  0  0  0  0  0  0  0  0
    2.1213    1.0607    0.0000 C   0  0  0  0  0  0  0  0  0  0  0  0
    1.0607    0.0000    0.0000 C   0  0  0  0  0  0  0  0  0  0  0  0
   -0.0000   -1.0607    0.0000 C   0  0  0  0  0  0  0  0  0  0  0  0
   -1.0607    0.0000    0.0000 C   0  0  0  0  0  0  0  0  0  0  0  0
    0.0000    1.0607    0.0000 C   0  0  0  0  0  0  0  0  0  0  0  0
    2.1213   -1.0607    0.0000 C   0  0  0  0  0  0  0  0  0  0  0  0
    1.7331   -2.5095    0.0000 O   0  0  0  0  0  0  0  0  0  0  0  0
    3.5702   -0.6724    0.0000 O   0  0  0  0  0  0  0  0  0  0  0  0
    3.5702    0.6724    0.0000 O   0  0  0  0  0  0  0  0  0  0  0  0
  1  2  2  0
  2  3  1  0
  3  4  1  0
  4  5  1  0
  5  6  1  0
  3  7  1  0
  7  8  1  0
  7  9  2  0
  2 10  1  0
  6  3  1  0
M  END
>  <Name>  (112) 
Cyclobutane-1,1-dicarboxylic_acid

>  <logK_Eu_z=3.0_T=25_I=0.1>  (112) 
4.0

$$$$

     RDKit          2D

 11 11  0  0  0  0  0  0  0  0999 V2000
    2.0788    2.4709    0.0000 O   0  0  0  0  0  0  0  0  0  0  0  0
    2.3907    1.0037    0.0000 C   0  0  0  0  0  0  0  0  0  0  0  0
    1.2760    0.0000    0.0000 C   0  0  0  0  0  0  0  0  0  0  0  0
    0.3943    1.2135    0.0000 C   0  0  0  0  0  0  0  0  0  0  0  0
   -1.0323    0.7500    0.0000 C   0  0  0  0  0  0  0  0  0  0  0  0
   -1.0323   -0.7500    0.0000 C   0  0  0  0  0  0  0  0  0  0  0  0
    0.3943   -1.2135    0.0000 C   0  0  0  0  0  0  0  0  0  0  0  0
    2.3907   -1.0037    0.0000 C   0  0  0  0  0  0  0  0  0  0  0  0
    2.0788   -2.4709    0.0000 O   0  0  0  0  0  0  0  0  0  0  0  0
    3.8173   -0.5402    0.0000 O   0  0  0  0  0  0  0  0  0  0  0  0
    3.8173    0.5402    0.0000 O   0  0  0  0  0  0  0  0  0  0  0  0
  1  2  2  0
  2  3  1  0
  3  4  1  0
  4  5  1  0
  5  6  1  0
  6  7  1  0
  3  8  1  0
  8  9  1  0
  8 10  2  0
  2 11  1  0
  7  3  1  0
M  END
>  <Name>  (113) 
Cyclopentane-1,1-dicarboxylic_acid

>  <logK_Eu_z=3.0_T=25_I=0.1>  (113) 
4.17

$$$$

     RDKit          2D

  9  8  0  0  0  0  0  0  0  0999 V2000
    0.0000    0.0000    0.0000 C   0  0  0  0  0  0  0  0  0  0  0  0
    1.2990    0.7500    0.0000 C   0  0  0  0  0  0  0  0  0  0  0  0
    1.2990    2.2500    0.0000 C   0  0  0  0  0  0  0  0  0  0  0  0
   -0.0000    3.0000    0.0000 O   0  0  0  0  0  0  0  0  0  0  0  0
    2.5981    3.0000    0.0000 O   0  0  0  0  0  0  0  0  0  0  0  0
    2.5981   -0.0000    0.0000 C   0  0  0  0  0  0  0  0  0  0  0  0
    3.8971    0.7500    0.0000 C   0  0  0  0  0  0  0  0  0  0  0  0
    3.8971    2.2500    0.0000 O   0  0  0  0  0  0  0  0  0  0  0  0
    5.1962   -0.0000    0.0000 O   0  0  0  0  0  0  0  0  0  0  0  0
  1  2  1  0
  2  3  1  0
  3  4  2  0
  3  5  1  0
  2  6  1  0
  6  7  1  0
  7  8  2  0
  7  9  1  0
M  END
>  <Name>  (114) 
DL-Propane-1,2-dicarboxylic_acid_(Methylsuccinic_acid)

>  <logK_Eu_z=3.0_T=25_I=0.1>  (114) 
3.37

$$$$

     RDKit          2D

  8  7  0  0  0  0  0  0  0  0999 V2000
    0.0000   -2.5981    0.0000 O   0  0  0  0  0  0  0  0  0  0  0  0
   -0.7500   -1.2990    0.0000 C   0  0  0  0  0  0  0  0  0  0  0  0
    0.0000    0.0000    0.0000 C   0  0  0  0  0  0  0  0  0  0  0  0
    1.5000    0.0000    0.0000 C   0  0  0  0  0  0  0  0  0  0  0  0
    2.2500   -1.2990    0.0000 C   0  0  0  0  0  0  0  0  0  0  0  0
    1.5000   -2.5981    0.0000 O   0  0  0  0  0  0  0  0  0  0  0  0
    3.7500   -1.2990    0.0000 O   0  0  0  0  0  0  0  0  0  0  0  0
   -2.2500   -1.2990    0.0000 O   0  0  0  0  0  0  0  0  0  0  0  0
  1  2  2  0
  2  3  1  0
  3  4  2  0
  4  5  1  0
  5  6  2  0
  5  7  1  0
  2  8  1  0
M  END
>  <Name>  (115) 
cis-Butenedioic_acid_(Maleic_acid)

>  <logK_Eu_z=3.0_T=25_I=0.1>  (115) 
3.83

>  <logK_Eu_z=3.0_T=25_I=1.0>  (115) 
2.99

$$$$

     RDKit          2D

  8  7  0  0  0  0  0  0  0  0999 V2000
   -2.2500   -1.2990    0.0000 O   0  0  0  0  0  0  0  0  0  0  0  0
   -0.7500   -1.2990    0.0000 C   0  0  0  0  0  0  0  0  0  0  0  0
    0.0000   -2.5981    0.0000 O   0  0  0  0  0  0  0  0  0  0  0  0
    0.0000    0.0000    0.0000 C   0  0  0  0  0  0  0  0  0  0  0  0
    1.5000    0.0000    0.0000 C   0  0  0  0  0  0  0  0  0  0  0  0
    2.2500    1.2990    0.0000 C   0  0  0  0  0  0  0  0  0  0  0  0
    1.5000    2.5981    0.0000 O   0  0  0  0  0  0  0  0  0  0  0  0
    3.7500    1.2990    0.0000 O   0  0  0  0  0  0  0  0  0  0  0  0
  1  2  1  0
  2  3  2  0
  2  4  1  0
  4  5  2  0
  5  6  1  0
  6  7  2  0
  6  8  1  0
M  END
>  <Name>  (116) 
trans-Butenedioic_acid_(Fumaric_acid)

>  <logK_Eu_z=3.0_T=25_I=0.1>  (116) 
2.78

$$$$

     RDKit          2D

  0  0  0  0  0  0  0  0  0  0999 V3000
M  V30 BEGIN CTAB
M  V30 COUNTS 12 12 0 0 0
M  V30 BEGIN ATOM
M  V30 1 O 3.750000 -1.299038 0.000000 0
M  V30 2 C 3.000000 0.000000 0.000000 0
M  V30 3 C 1.500000 0.000000 0.000000 0
M  V30 4 C 0.750000 -1.299038 0.000000 0
M  V30 5 C -0.750000 -1.299038 0.000000 0
M  V30 6 C -1.500000 0.000000 0.000000 0
M  V30 7 C -3.000000 0.000000 0.000000 0
M  V30 8 O -3.750000 1.299038 0.000000 0
M  V30 9 O -3.750000 -1.299038 0.000000 0
M  V30 10 C -0.750000 1.299038 0.000000 0
M  V30 11 C 0.750000 1.299038 0.000000 0
M  V30 12 O 3.750000 1.299038 0.000000 0
M  V30 END ATOM
M  V30 BEGIN BOND
M  V30 1 1 1 2
M  V30 2 1 3 2 CFG=1
M  V30 3 1 3 4
M  V30 4 1 4 5
M  V30 5 1 5 6
M  V30 6 1 6 7 CFG=3
M  V30 7 1 7 8
M  V30 8 2 7 9
M  V30 9 1 6 10
M  V30 10 1 10 11
M  V30 11 2 2 12
M  V30 12 1 11 3
M  V30 END BOND
M  V30 BEGIN COLLECTION
M  V30 MDLV30/STERAC1 ATOMS=(2 3 6)
M  V30 END COLLECTION
M  V30 END CTAB
M  END
>  <_CXSMILES_Data>  (117) 
|&1:2,5,r|

>  <Name>  (117) 
trans-Cyclohexane-1,4-dicarboxylic_acid

>  <logK_Eu_z=3.0_T=25_I=0.1>  (117) 
4.41

$$$$

     RDKit          2D

 12 12  0  0  0  0  0  0  0  0999 V2000
    3.7500   -1.2990    0.0000 O   0  0  0  0  0  0  0  0  0  0  0  0
    3.0000    0.0000    0.0000 C   0  0  0  0  0  0  0  0  0  0  0  0
    3.7500    1.2990    0.0000 O   0  0  0  0  0  0  0  0  0  0  0  0
    1.5000    0.0000    0.0000 C   0  0  0  0  0  0  0  0  0  0  0  0
    0.7500   -1.2990    0.0000 C   0  0  0  0  0  0  0  0  0  0  0  0
    1.5000   -2.5981    0.0000 C   0  0  0  0  0  0  0  0  0  0  0  0
    3.0000   -2.5981    0.0000 O   0  0  0  0  0  0  0  0  0  0  0  0
    0.7500   -3.8971    0.0000 O   0  0  0  0  0  0  0  0  0  0  0  0
   -0.7500   -1.2990    0.0000 C   0  0  0  0  0  0  0  0  0  0  0  0
   -1.5000    0.0000    0.0000 C   0  0  0  0  0  0  0  0  0  0  0  0
   -0.7500    1.2990    0.0000 C   0  0  0  0  0  0  0  0  0  0  0  0
    0.7500    1.2990    0.0000 C   0  0  0  0  0  0  0  0  0  0  0  0
  1  2  1  0
  2  3  2  0
  2  4  1  0
  4  5  2  0
  5  6  1  0
  6  7  2  0
  6  8  1  0
  5  9  1  0
  9 10  2  0
 10 11  1  0
 11 12  2  0
 12  4  1  0
M  END
>  <Name>  (118) 
Benzene-1,2-dicarboxylic_acid_(Phthalic_acid)

>  <logK_Eu_z=3.0_T=25_I=0.1>  (118) 
3.7

$$$$

     RDKit          2D

 12 12  0  0  0  0  0  0  0  0999 V2000
    3.7500   -1.2990    0.0000 O   0  0  0  0  0  0  0  0  0  0  0  0
    3.0000    0.0000    0.0000 C   0  0  0  0  0  0  0  0  0  0  0  0
    3.7500    1.2990    0.0000 O   0  0  0  0  0  0  0  0  0  0  0  0
    1.5000    0.0000    0.0000 C   0  0  0  0  0  0  0  0  0  0  0  0
    0.7500   -1.2990    0.0000 C   0  0  0  0  0  0  0  0  0  0  0  0
   -0.7500   -1.2990    0.0000 C   0  0  0  0  0  0  0  0  0  0  0  0
   -1.5000    0.0000    0.0000 C   0  0  0  0  0  0  0  0  0  0  0  0
   -0.7500    1.2990    0.0000 C   0  0  0  0  0  0  0  0  0  0  0  0
   -1.5000    2.5981    0.0000 C   0  0  0  0  0  0  0  0  0  0  0  0
   -3.0000    2.5981    0.0000 O   0  0  0  0  0  0  0  0  0  0  0  0
   -0.7500    3.8971    0.0000 O   0  0  0  0  0  0  0  0  0  0  0  0
    0.7500    1.2990    0.0000 C   0  0  0  0  0  0  0  0  0  0  0  0
  1  2  1  0
  2  3  2  0
  2  4  1  0
  4  5  2  0
  5  6  1  0
  6  7  2  0
  7  8  1  0
  8  9  1  0
  9 10  2  0
  9 11  1  0
  8 12  2  0
 12  4  1  0
M  END
>  <Name>  (119) 
Benzene-1,3-dicarboxylic_acid_(Isophthalic_acid)

>  <logK_Eu_z=3.0_T=25_I=0.1>  (119) 
2.76

$$$$

     RDKit          2D

 12 12  0  0  0  0  0  0  0  0999 V2000
    3.0000    0.0000    0.0000 C   0  0  0  0  0  0  0  0  0  0  0  0
    1.5000    0.0000    0.0000 C   0  0  0  0  0  0  0  0  0  0  0  0
    0.7500   -1.2990    0.0000 C   0  0  0  0  0  0  0  0  0  0  0  0
   -0.7500   -1.2990    0.0000 C   0  0  0  0  0  0  0  0  0  0  0  0
   -1.5000    0.0000    0.0000 C   0  0  0  0  0  0  0  0  0  0  0  0
   -3.0000    0.0000    0.0000 C   0  0  0  0  0  0  0  0  0  0  0  0
   -3.7500   -1.2990    0.0000 O   0  0  0  0  0  0  0  0  0  0  0  0
   -3.7500    1.2990    0.0000 O   0  0  0  0  0  0  0  0  0  0  0  0
   -0.7500    1.2990    0.0000 C   0  0  0  0  0  0  0  0  0  0  0  0
    0.7500    1.2990    0.0000 C   0  0  0  0  0  0  0  0  0  0  0  0
    3.7500   -1.2990    0.0000 O   0  0  0  0  0  0  0  0  0  0  0  0
    3.7500    1.2990    0.0000 O   0  0  0  0  0  0  0  0  0  0  0  0
  1  2  1  0
  2  3  2  0
  3  4  1  0
  4  5  2  0
  5  6  1  0
  6  7  2  0
  6  8  1  0
  5  9  1  0
  9 10  2  0
  1 11  1  0
  1 12  2  0
 10  2  1  0
M  END
>  <Name>  (120) 
Benzene-1,4-dicarboxylic_acid_(Terephthalic_acid)

>  <logK_Eu_z=3.0_T=25_I=0.1>  (120) 
2.32

$$$$

     RDKit          2D

  9  8  0  0  0  0  0  0  0  0999 V2000
    1.2990    0.7500    0.0000 C   0  0  0  0  0  0  0  0  0  0  0  0
    1.2990    2.2500    0.0000 O   0  0  0  0  0  0  0  0  0  0  0  0
    0.0000    0.0000    0.0000 C   0  0  0  0  0  0  0  0  0  0  0  0
   -1.2990    0.7500    0.0000 C   0  0  0  0  0  0  0  0  0  0  0  0
   -2.5981    0.0000    0.0000 O   0  0  0  0  0  0  0  0  0  0  0  0
   -1.2990    2.2500    0.0000 O   0  0  0  0  0  0  0  0  0  0  0  0
    2.5981   -0.0000    0.0000 C   0  0  0  0  0  0  0  0  0  0  0  0
    3.8971    0.7500    0.0000 O   0  0  0  0  0  0  0  0  0  0  0  0
    2.5981   -1.5000    0.0000 O   0  0  0  0  0  0  0  0  0  0  0  0
  1  2  1  6
  1  3  1  0
  3  4  1  0
  4  5  1  0
  4  6  2  0
  1  7  1  0
  7  8  1  0
  7  9  2  0
M  END
>  <Name>  (121) 
L-Hydroxybutanedioic_acid_(Hydroxysuccinic_acid)(Malic_acid)

>  <logK_Eu_z=3.0_T=25_I=0.1>  (121) 
4.85

$$$$

     RDKit          2D

 10  9  0  0  0  0  0  0  0  0999 V2000
    0.0000    0.0000    0.0000 C   0  0  0  0  0  0  0  0  0  0  0  0
   -0.0000   -1.5000    0.0000 O   0  0  0  0  0  0  0  0  0  0  0  0
   -1.2990    0.7500    0.0000 C   0  0  0  0  0  0  0  0  0  0  0  0
   -2.5981    0.0000    0.0000 O   0  0  0  0  0  0  0  0  0  0  0  0
   -1.2990    2.2500    0.0000 O   0  0  0  0  0  0  0  0  0  0  0  0
    1.2990    0.7500    0.0000 C   0  0  0  0  0  0  0  0  0  0  0  0
    1.2990    2.2500    0.0000 O   0  0  0  0  0  0  0  0  0  0  0  0
    2.5981   -0.0000    0.0000 C   0  0  0  0  0  0  0  0  0  0  0  0
    3.8971    0.7500    0.0000 O   0  0  0  0  0  0  0  0  0  0  0  0
    2.5981   -1.5000    0.0000 O   0  0  0  0  0  0  0  0  0  0  0  0
  1  2  1  1
  1  3  1  0
  3  4  1  0
  3  5  2  0
  1  6  1  0
  6  7  1  1
  6  8  1  0
  8  9  1  0
  8 10  2  0
M  END
>  <Name>  (122) 
D-2,3-Dihydroxybutanedioic_acid_(D-Tartaric_acid)

>  <logK_Eu_z=3.0_T=25_I=0.1>  (122) 
4.33

$$$$

     RDKit          2D

  9  8  0  0  0  0  0  0  0  0999 V2000
    3.8971    0.7500    0.0000 O   0  0  0  0  0  0  0  0  0  0  0  0
    2.5981   -0.0000    0.0000 C   0  0  0  0  0  0  0  0  0  0  0  0
    2.5981   -1.5000    0.0000 O   0  0  0  0  0  0  0  0  0  0  0  0
    1.2990    0.7500    0.0000 C   0  0  0  0  0  0  0  0  0  0  0  0
    1.2990    2.2500    0.0000 O   0  0  0  0  0  0  0  0  0  0  0  0
    0.0000    0.0000    0.0000 C   0  0  0  0  0  0  0  0  0  0  0  0
   -1.2990    0.7500    0.0000 C   0  0  0  0  0  0  0  0  0  0  0  0
   -1.2990    2.2500    0.0000 O   0  0  0  0  0  0  0  0  0  0  0  0
   -2.5981    0.0000    0.0000 O   0  0  0  0  0  0  0  0  0  0  0  0
  1  2  1  0
  2  3  2  0
  2  4  1  0
  4  5  2  0
  4  6  1  0
  6  7  1  0
  7  8  2  0
  7  9  1  0
M  END
>  <Name>  (123) 
Oxobutanedioic_acid_(Oxaloacetic_acid)

>  <logK_Eu_z=3.0_T=25_I=0.5>  (123) 
3.77

$$$$

     RDKit          2D

  9  8  0  0  0  0  0  0  0  0999 V2000
    1.2990    0.7500    0.0000 C   0  0  0  0  0  0  0  0  0  0  0  0
    0.0000    0.0000    0.0000 C   0  0  0  0  0  0  0  0  0  0  0  0
   -1.2990    0.7500    0.0000 O   0  0  0  0  0  0  0  0  0  0  0  0
   -2.5981    0.0000    0.0000 C   0  0  0  0  0  0  0  0  0  0  0  0
   -3.8971    0.7500    0.0000 C   0  0  0  0  0  0  0  0  0  0  0  0
   -5.1962    0.0000    0.0000 O   0  0  0  0  0  0  0  0  0  0  0  0
   -3.8971    2.2500    0.0000 O   0  0  0  0  0  0  0  0  0  0  0  0
    2.5981   -0.0000    0.0000 O   0  0  0  0  0  0  0  0  0  0  0  0
    1.2990    2.2500    0.0000 O   0  0  0  0  0  0  0  0  0  0  0  0
  1  2  1  0
  2  3  1  0
  3  4  1  0
  4  5  1  0
  5  6  1  0
  5  7  2  0
  1  8  1  0
  1  9  2  0
M  END
>  <Name>  (124) 
Oxydiacetic_acid_(Diglycolic_acid)

>  <logK_Eu_z=3.0_T=25_I=0.1>  (124) 
6.41

>  <logK_Eu_z=3.0_T=25_I=1.0>  (124) 
5.53

$$$$

     RDKit          2D

 11 10  0  0  0  0  0  0  0  0999 V2000
    1.2990    2.2500    0.0000 O   0  0  0  0  0  0  0  0  0  0  0  0
    1.2990    0.7500    0.0000 C   0  0  0  0  0  0  0  0  0  0  0  0
    2.5981   -0.0000    0.0000 C   0  0  0  0  0  0  0  0  0  0  0  0
    2.5981   -1.5000    0.0000 O   0  0  0  0  0  0  0  0  0  0  0  0
    3.8971    0.7500    0.0000 O   0  0  0  0  0  0  0  0  0  0  0  0
    0.0000    0.0000    0.0000 C   0  0  0  0  0  0  0  0  0  0  0  0
    2.5981    3.0000    0.0000 C   0  0  0  0  0  0  0  0  0  0  0  0
    2.5981    4.5000    0.0000 C   0  0  0  0  0  0  0  0  0  0  0  0
    1.2990    5.2500    0.0000 O   0  0  0  0  0  0  0  0  0  0  0  0
    3.8971    5.2500    0.0000 O   0  0  0  0  0  0  0  0  0  0  0  0
    3.8971    2.2500    0.0000 C   0  0  0  0  0  0  0  0  0  0  0  0
  1  2  1  0
  2  3  1  0
  3  4  2  0
  3  5  1  0
  2  6  1  0
  1  7  1  0
  7  8  1  0
  8  9  2  0
  8 10  1  0
  7 11  1  0
M  END
>  <Name>  (125) 
DL-2,2'-Oxydipropanoic_acid_(Dilactic_acid)

>  <logK_Eu_z=3.0_T=25_I=0.1>  (125) 
5.45

$$$$

     RDKit          2D

 15 15  0  0  0  0  0  0  0  0999 V2000
    1.5000    0.0000    0.0000 C   0  0  0  0  0  0  0  0  0  0  0  0
    3.0000    0.0000    0.0000 C   0  0  0  0  0  0  0  0  0  0  0  0
    3.7500   -1.2990    0.0000 O   0  0  0  0  0  0  0  0  0  0  0  0
    3.7500    1.2990    0.0000 O   0  0  0  0  0  0  0  0  0  0  0  0
    0.7500   -1.2990    0.0000 C   0  0  0  0  0  0  0  0  0  0  0  0
    1.5000   -2.5981    0.0000 C   0  0  0  0  0  0  0  0  0  0  0  0
    0.7500   -3.8971    0.0000 O   0  0  0  0  0  0  0  0  0  0  0  0
    3.0000   -2.5981    0.0000 O   0  0  0  0  0  0  0  0  0  0  0  0
   -0.7500   -1.2990    0.0000 C   0  0  0  0  0  0  0  0  0  0  0  0
   -1.5000   -2.5981    0.0000 C   0  0  0  0  0  0  0  0  0  0  0  0
   -3.0000   -2.5981    0.0000 O   0  0  0  0  0  0  0  0  0  0  0  0
   -0.7500   -3.8971    0.0000 O   0  0  0  0  0  0  0  0  0  0  0  0
   -1.5000    0.0000    0.0000 C   0  0  0  0  0  0  0  0  0  0  0  0
   -0.7500    1.2990    0.0000 C   0  0  0  0  0  0  0  0  0  0  0  0
    0.7500    1.2990    0.0000 C   0  0  0  0  0  0  0  0  0  0  0  0
  1  2  1  0
  2  3  1  0
  2  4  2  0
  1  5  2  0
  5  6  1  0
  6  7  1  0
  6  8  2  0
  5  9  1  0
  9 10  1  0
 10 11  1  0
 10 12  2  0
  9 13  2  0
 13 14  1  0
 14 15  2  0
 15  1  1  0
M  END
>  <Name>  (126) 
Benzene-1,2,3-tricarboxylic_acid_(Hemimellitic_acid)

>  <logK_Eu_z=3.0_T=25_I=0.1>  (126) 
5.08

$$$$

     RDKit          2D

 15 15  0  0  0  0  0  0  0  0999 V2000
    3.7500   -1.2990    0.0000 O   0  0  0  0  0  0  0  0  0  0  0  0
    3.0000    0.0000    0.0000 C   0  0  0  0  0  0  0  0  0  0  0  0
    3.7500    1.2990    0.0000 O   0  0  0  0  0  0  0  0  0  0  0  0
    1.5000    0.0000    0.0000 C   0  0  0  0  0  0  0  0  0  0  0  0
    0.7500   -1.2990    0.0000 C   0  0  0  0  0  0  0  0  0  0  0  0
    1.5000   -2.5981    0.0000 C   0  0  0  0  0  0  0  0  0  0  0  0
    3.0000   -2.5981    0.0000 O   0  0  0  0  0  0  0  0  0  0  0  0
    0.7500   -3.8971    0.0000 O   0  0  0  0  0  0  0  0  0  0  0  0
   -0.7500   -1.2990    0.0000 C   0  0  0  0  0  0  0  0  0  0  0  0
   -1.5000    0.0000    0.0000 C   0  0  0  0  0  0  0  0  0  0  0  0
   -0.7500    1.2990    0.0000 C   0  0  0  0  0  0  0  0  0  0  0  0
   -1.5000    2.5981    0.0000 C   0  0  0  0  0  0  0  0  0  0  0  0
   -3.0000    2.5981    0.0000 O   0  0  0  0  0  0  0  0  0  0  0  0
   -0.7500    3.8971    0.0000 O   0  0  0  0  0  0  0  0  0  0  0  0
    0.7500    1.2990    0.0000 C   0  0  0  0  0  0  0  0  0  0  0  0
  1  2  2  0
  2  3  1  0
  2  4  1  0
  4  5  2  0
  5  6  1  0
  6  7  2  0
  6  8  1  0
  5  9  1  0
  9 10  2  0
 10 11  1  0
 11 12  1  0
 12 13  2  0
 12 14  1  0
 11 15  2  0
 15  4  1  0
M  END
>  <Name>  (127) 
Benzene-1,2,4-tricarboxylic_acid_(Trimellitic_acid)

>  <logK_Eu_z=3.0_T=25_I=0.1>  (127) 
4.38

$$$$

     RDKit          2D

 15 15  0  0  0  0  0  0  0  0999 V2000
    3.7500    1.2990    0.0000 O   0  0  0  0  0  0  0  0  0  0  0  0
    3.0000    0.0000    0.0000 C   0  0  0  0  0  0  0  0  0  0  0  0
    1.5000    0.0000    0.0000 C   0  0  0  0  0  0  0  0  0  0  0  0
    0.7500   -1.2990    0.0000 C   0  0  0  0  0  0  0  0  0  0  0  0
   -0.7500   -1.2990    0.0000 C   0  0  0  0  0  0  0  0  0  0  0  0
   -1.5000   -2.5981    0.0000 C   0  0  0  0  0  0  0  0  0  0  0  0
   -0.7500   -3.8971    0.0000 O   0  0  0  0  0  0  0  0  0  0  0  0
   -3.0000   -2.5981    0.0000 O   0  0  0  0  0  0  0  0  0  0  0  0
   -1.5000    0.0000    0.0000 C   0  0  0  0  0  0  0  0  0  0  0  0
   -0.7500    1.2990    0.0000 C   0  0  0  0  0  0  0  0  0  0  0  0
   -1.5000    2.5981    0.0000 C   0  0  0  0  0  0  0  0  0  0  0  0
   -3.0000    2.5981    0.0000 O   0  0  0  0  0  0  0  0  0  0  0  0
   -0.7500    3.8971    0.0000 O   0  0  0  0  0  0  0  0  0  0  0  0
    0.7500    1.2990    0.0000 C   0  0  0  0  0  0  0  0  0  0  0  0
    3.7500   -1.2990    0.0000 O   0  0  0  0  0  0  0  0  0  0  0  0
  1  2  2  0
  2  3  1  0
  3  4  2  0
  4  5  1  0
  5  6  1  0
  6  7  2  0
  6  8  1  0
  5  9  2  0
  9 10  1  0
 10 11  1  0
 11 12  2  0
 11 13  1  0
 10 14  2  0
  2 15  1  0
 14  3  1  0
M  END
>  <Name>  (128) 
Benzene-1,3,5-tricarboxylic_acid_(Trimesic_acid)

>  <logK_Eu_z=3.0_T=25_I=0.1>  (128) 
3.56

$$$$

     RDKit          2D

 13 12  0  0  0  0  0  0  0  0999 V2000
    0.5490    2.0490    0.0000 O   0  0  0  0  0  0  0  0  0  0  0  0
    1.2990    0.7500    0.0000 C   0  0  0  0  0  0  0  0  0  0  0  0
    2.0490   -0.5490    0.0000 C   0  0  0  0  0  0  0  0  0  0  0  0
    3.5490   -0.5490    0.0000 O   0  0  0  0  0  0  0  0  0  0  0  0
    1.2990   -1.8481    0.0000 O   0  0  0  0  0  0  0  0  0  0  0  0
    0.0000    0.0000    0.0000 C   0  0  0  0  0  0  0  0  0  0  0  0
   -1.2990    0.7500    0.0000 C   0  0  0  0  0  0  0  0  0  0  0  0
   -2.5981    0.0000    0.0000 O   0  0  0  0  0  0  0  0  0  0  0  0
   -1.2990    2.2500    0.0000 O   0  0  0  0  0  0  0  0  0  0  0  0
    2.5981    1.5000    0.0000 C   0  0  0  0  0  0  0  0  0  0  0  0
    2.5981    3.0000    0.0000 C   0  0  0  0  0  0  0  0  0  0  0  0
    3.8971    3.7500    0.0000 O   0  0  0  0  0  0  0  0  0  0  0  0
    1.2990    3.7500    0.0000 O   0  0  0  0  0  0  0  0  0  0  0  0
  1  2  1  0
  2  3  1  0
  3  4  1  0
  3  5  2  0
  2  6  1  0
  6  7  1  0
  7  8  1  0
  7  9  2  0
  2 10  1  0
 10 11  1  0
 11 12  1  0
 11 13  2  0
M  END
>  <Name>  (129) 
2-Hydroxypropane-1,2,3-tricarboxylic_acid_(Citric_acid)

>  <logK_Eu_z=3.0_T=25_I=0.1>  (129) 
7.77

>  <logK_Eu_z=3.0_T=25_I=0.0>  (129) 
9.46

$$$$

     RDKit          2D

 18 18  0  0  0  0  0  0  0  0999 V2000
    1.5000    0.0000    0.0000 C   0  0  0  0  0  0  0  0  0  0  0  0
    3.0000    0.0000    0.0000 C   0  0  0  0  0  0  0  0  0  0  0  0
    3.7500   -1.2990    0.0000 O   0  0  0  0  0  0  0  0  0  0  0  0
    3.7500    1.2990    0.0000 O   0  0  0  0  0  0  0  0  0  0  0  0
    0.7500   -1.2990    0.0000 C   0  0  0  0  0  0  0  0  0  0  0  0
   -0.7500   -1.2990    0.0000 C   0  0  0  0  0  0  0  0  0  0  0  0
   -1.5000   -2.5981    0.0000 C   0  0  0  0  0  0  0  0  0  0  0  0
   -3.0000   -2.5981    0.0000 O   0  0  0  0  0  0  0  0  0  0  0  0
   -0.7500   -3.8971    0.0000 O   0  0  0  0  0  0  0  0  0  0  0  0
   -1.5000    0.0000    0.0000 C   0  0  0  0  0  0  0  0  0  0  0  0
   -0.7500    1.2990    0.0000 C   0  0  0  0  0  0  0  0  0  0  0  0
    0.7500    1.2990    0.0000 C   0  0  0  0  0  0  0  0  0  0  0  0
    1.5000    2.5981    0.0000 C   0  0  0  0  0  0  0  0  0  0  0  0
    0.7500    3.8971    0.0000 O   0  0  0  0  0  0  0  0  0  0  0  0
    3.0000    2.5981    0.0000 O   0  0  0  0  0  0  0  0  0  0  0  0
   -3.0000    0.0000    0.0000 C   0  0  0  0  0  0  0  0  0  0  0  0
   -3.7500    1.2990    0.0000 O   0  0  0  0  0  0  0  0  0  0  0  0
   -3.7500   -1.2990    0.0000 O   0  0  0  0  0  0  0  0  0  0  0  0
  1  2  1  0
  2  3  1  0
  2  4  2  0
  1  5  2  0
  5  6  1  0
  6  7  1  0
  7  8  1  0
  7  9  2  0
  6 10  2  0
 10 11  1  0
 11 12  2  0
 12 13  1  0
 13 14  1  0
 13 15  2  0
 10 16  1  0
 16 17  1  0
 16 18  2  0
 12  1  1  0
M  END
>  <Name>  (130) 
Benzene-1,2,4,5-tetracarboxylic_acid_(Pyromellitic_acid)

>  <logK_Eu_z=3.0_T=25_I=0.1>  (130) 
4.82

$$$$

     RDKit          2D

 24 24  0  0  0  0  0  0  0  0999 V2000
    3.7500   -1.2990    0.0000 O   0  0  0  0  0  0  0  0  0  0  0  0
    3.0000    0.0000    0.0000 C   0  0  0  0  0  0  0  0  0  0  0  0
    1.5000    0.0000    0.0000 C   0  0  0  0  0  0  0  0  0  0  0  0
    0.7500   -1.2990    0.0000 C   0  0  0  0  0  0  0  0  0  0  0  0
    1.5000   -2.5981    0.0000 C   0  0  0  0  0  0  0  0  0  0  0  0
    3.0000   -2.5981    0.0000 O   0  0  0  0  0  0  0  0  0  0  0  0
    0.7500   -3.8971    0.0000 O   0  0  0  0  0  0  0  0  0  0  0  0
   -0.7500   -1.2990    0.0000 C   0  0  0  0  0  0  0  0  0  0  0  0
   -1.5000   -2.5981    0.0000 C   0  0  0  0  0  0  0  0  0  0  0  0
   -0.7500   -3.8971    0.0000 O   0  0  0  0  0  0  0  0  0  0  0  0
   -3.0000   -2.5981    0.0000 O   0  0  0  0  0  0  0  0  0  0  0  0
   -1.5000    0.0000    0.0000 C   0  0  0  0  0  0  0  0  0  0  0  0
   -3.0000    0.0000    0.0000 C   0  0  0  0  0  0  0  0  0  0  0  0
   -3.7500   -1.2990    0.0000 O   0  0  0  0  0  0  0  0  0  0  0  0
   -3.7500    1.2990    0.0000 O   0  0  0  0  0  0  0  0  0  0  0  0
   -0.7500    1.2990    0.0000 C   0  0  0  0  0  0  0  0  0  0  0  0
   -1.5000    2.5981    0.0000 C   0  0  0  0  0  0  0  0  0  0  0  0
   -3.0000    2.5981    0.0000 O   0  0  0  0  0  0  0  0  0  0  0  0
   -0.7500    3.8971    0.0000 O   0  0  0  0  0  0  0  0  0  0  0  0
    0.7500    1.2990    0.0000 C   0  0  0  0  0  0  0  0  0  0  0  0
    1.5000    2.5981    0.0000 C   0  0  0  0  0  0  0  0  0  0  0  0
    0.7500    3.8971    0.0000 O   0  0  0  0  0  0  0  0  0  0  0  0
    3.0000    2.5981    0.0000 O   0  0  0  0  0  0  0  0  0  0  0  0
    3.7500    1.2990    0.0000 O   0  0  0  0  0  0  0  0  0  0  0  0
  1  2  1  0
  2  3  1  0
  3  4  2  0
  4  5  1  0
  5  6  2  0
  5  7  1  0
  4  8  1  0
  8  9  1  0
  9 10  2  0
  9 11  1  0
  8 12  2  0
 12 13  1  0
 13 14  2  0
 13 15  1  0
 12 16  1  0
 16 17  1  0
 17 18  2  0
 17 19  1  0
 16 20  2  0
 20 21  1  0
 21 22  2  0
 21 23  1  0
  2 24  2  0
 20  3  1  0
M  END
>  <Name>  (131) 
Benzenehexacarboxylic_acid_(Mellitic_acid)

>  <logK_Eu_z=3.0_T=25_I=0.1>  (131) 
6.86

$$$$

     RDKit          2D

 15 15  0  0  0  0  0  0  0  0999 V2000
    3.0000    0.0000    0.0000 Br  0  0  0  0  0  0  0  0  0  0  0  0
    1.5000    0.0000    0.0000 C   0  0  0  0  0  0  0  0  0  0  0  0
    0.7500   -1.2990    0.0000 C   0  0  0  0  0  0  0  0  0  0  0  0
   -0.7500   -1.2990    0.0000 C   0  0  0  0  0  0  0  0  0  0  0  0
   -1.5000   -2.5981    0.0000 C   0  0  0  0  0  0  0  0  0  0  0  0
   -0.7500   -3.8971    0.0000 O   0  0  0  0  0  0  0  0  0  0  0  0
   -3.0000   -2.5981    0.0000 O   0  0  0  0  0  0  0  0  0  0  0  0
   -1.5000    0.0000    0.0000 C   0  0  0  0  0  0  0  0  0  0  0  0
   -0.7500    1.2990    0.0000 C   0  0  0  0  0  0  0  0  0  0  0  0
    0.7500    1.2990    0.0000 C   0  0  0  0  0  0  0  0  0  0  0  0
   -1.5000    2.5981    0.0000 S   0  0  0  0  0  0  0  0  0  0  0  0
   -0.2010    3.3481    0.0000 O   0  0  0  0  0  0  0  0  0  0  0  0
   -2.7990    1.8481    0.0000 O   0  0  0  0  0  0  0  0  0  0  0  0
   -2.2500    3.8971    0.0000 O   0  0  0  0  0  0  0  0  0  0  0  0
    1.5000   -2.5981    0.0000 O   0  0  0  0  0  0  0  0  0  0  0  0
  1  2  1  0
  2  3  2  0
  3  4  1  0
  4  5  1  0
  5  6  2  0
  5  7  1  0
  4  8  2  0
  8  9  1  0
  9 10  2  0
  9 11  1  0
 11 12  2  0
 11 13  2  0
 11 14  1  0
  3 15  1  0
 10  2  1  0
M  END
>  <Name>  (132) 
3-Bromo-2-hydroxy-5-sulfobenzoic_acid_(3-Bromo-5-sulfosalicylic_acid)

>  <logK_Eu_z=3.0_T=25_I=0.1>  (132) 
7.6

$$$$

     RDKit          2D

 20 20  0  0  0  0  0  0  0  0999 V2000
    7.5000    2.5981    0.0000 S   0  0  0  0  0  0  0  0  0  0  0  0
    6.0000    2.5981    0.0000 C   0  0  0  0  0  0  0  0  0  0  0  0
    5.2500    1.2990    0.0000 C   0  0  0  0  0  0  0  0  0  0  0  0
    3.7500    1.2990    0.0000 C   0  0  0  0  0  0  0  0  0  0  0  0
    3.0000    0.0000    0.0000 N   0  0  0  0  0  0  0  0  0  0  0  0
    1.5000    0.0000    0.0000 C   0  0  0  0  0  0  0  0  0  0  0  0
    0.7500   -1.2990    0.0000 C   0  0  0  0  0  0  0  0  0  0  0  0
   -0.7500   -1.2990    0.0000 C   0  0  0  0  0  0  0  0  0  0  0  0
   -1.5000    0.0000    0.0000 C   0  0  0  0  0  0  0  0  0  0  0  0
   -0.7500    1.2990    0.0000 C   0  0  0  0  0  0  0  0  0  0  0  0
    0.7500    1.2990    0.0000 C   0  0  0  0  0  0  0  0  0  0  0  0
   -1.5000    2.5981    0.0000 O   0  0  0  0  0  0  0  0  0  0  0  0
   -3.0000    0.0000    0.0000 N   0  0  0  0  0  0  0  0  0  0  0  0
   -3.7500    1.2990    0.0000 O   0  0  0  0  0  0  0  0  0  0  0  0
    3.7500   -1.2990    0.0000 C   0  0  0  0  0  0  0  0  0  0  0  0
    5.2500   -1.2990    0.0000 C   0  0  0  0  0  0  0  0  0  0  0  0
    6.0000   -2.5981    0.0000 C   0  0  0  0  0  0  0  0  0  0  0  0
    7.5000    4.0981    0.0000 O   0  0  0  0  0  0  0  0  0  0  0  0
    7.5000    1.0981    0.0000 O   0  0  0  0  0  0  0  0  0  0  0  0
    9.0000    2.5981    0.0000 O   0  0  0  0  0  0  0  0  0  0  0  0
  1  2  1  0
  2  3  1  0
  3  4  1  0
  4  5  1  0
  5  6  1  0
  6  7  2  0
  7  8  1  0
  8  9  2  0
  9 10  1  0
 10 11  2  0
 10 12  1  0
  9 13  1  0
 13 14  2  0
  5 15  1  0
 15 16  1  0
 16 17  1  0
  1 18  2  0
  1 19  2  0
  1 20  1  0
 11  6  1  0
M  END
>  <Name>  (133) 
2-Nitroso-5-(N-propyl-3-sulfopropylamino)phenol

>  <logK_Eu_z=3.0_T=25_I=0.1>  (133) 
5.85

$$$$

     RDKit          2D

 10 10  0  0  0  0  0  0  0  0999 V2000
    3.0000    0.0000    0.0000 O   0  0  0  0  0  0  0  0  0  0  0  0
    1.5000    0.0000    0.0000 C   0  0  0  0  0  0  0  0  0  0  0  0
    0.7500   -1.2990    0.0000 C   0  0  0  0  0  0  0  0  0  0  0  0
   -0.7500   -1.2990    0.0000 C   0  0  0  0  0  0  0  0  0  0  0  0
   -1.5000    0.0000    0.0000 C   0  0  0  0  0  0  0  0  0  0  0  0
   -0.7500    1.2990    0.0000 C   0  0  0  0  0  0  0  0  0  0  0  0
    0.7500    1.2990    0.0000 C   0  0  0  0  0  0  0  0  0  0  0  0
    1.5000    2.5981    0.0000 N   0  0  0  0  0  0  0  0  0  0  0  0
    3.0000    2.5981    0.0000 O   0  0  0  0  0  0  0  0  0  0  0  0
   -1.5000   -2.5981    0.0000 O   0  0  0  0  0  0  0  0  0  0  0  0
  1  2  1  0
  2  3  2  0
  3  4  1  0
  4  5  2  0
  5  6  1  0
  6  7  2  0
  7  8  1  0
  8  9  2  0
  4 10  1  0
  7  2  1  0
M  END
>  <Name>  (134) 
1,3-Dihydroxy-4-nitrosobenzene_(Nitrosoresorcinol)

>  <logK_Eu_z=3.0_T=25_I=0.1>  (134) 
6.21

$$$$

     RDKit          2D

 13 14  0  0  0  0  0  0  0  0999 V2000
    0.7500   -1.2990    0.0000 C   0  0  0  0  0  0  0  0  0  0  0  0
    1.5000    0.0000    0.0000 C   0  0  0  0  0  0  0  0  0  0  0  0
    0.7500    1.2990    0.0000 C   0  0  0  0  0  0  0  0  0  0  0  0
   -0.7500    1.2990    0.0000 C   0  0  0  0  0  0  0  0  0  0  0  0
   -1.5000    0.0000    0.0000 C   0  0  0  0  0  0  0  0  0  0  0  0
   -0.7500   -1.2990    0.0000 C   0  0  0  0  0  0  0  0  0  0  0  0
   -1.5000   -2.5981    0.0000 C   0  0  0  0  0  0  0  0  0  0  0  0
   -0.7500   -3.8971    0.0000 C   0  0  0  0  0  0  0  0  0  0  0  0
    0.7500   -3.8971    0.0000 C   0  0  0  0  0  0  0  0  0  0  0  0
    1.5000   -5.1962    0.0000 O   0  0  0  0  0  0  0  0  0  0  0  0
    1.5000   -2.5981    0.0000 C   0  0  0  0  0  0  0  0  0  0  0  0
    3.0000   -2.5981    0.0000 N   0  0  0  0  0  0  0  0  0  0  0  0
    3.7500   -3.8971    0.0000 O   0  0  0  0  0  0  0  0  0  0  0  0
  1  2  2  0
  2  3  1  0
  3  4  2  0
  4  5  1  0
  5  6  2  0
  6  7  1  0
  7  8  2  0
  8  9  1  0
  9 10  1  0
  9 11  2  0
 11 12  1  0
 12 13  2  0
  6  1  1  0
 11  1  1  0
M  END
>  <Name>  (135) 
1-Nitroso-2-naphthol

>  <logK_Eu_z=3.0_T=25_I=0.1>  (135) 
4.53

$$$$

     RDKit          2D

  7  6  0  0  0  0  0  0  0  0999 V2000
    0.0000    0.0000    0.0000 C   0  0  0  0  0  0  0  0  0  0  0  0
    1.2990    0.7500    0.0000 C   0  0  0  0  0  0  0  0  0  0  0  0
    2.5981   -0.0000    0.0000 C   0  0  0  0  0  0  0  0  0  0  0  0
    3.8971    0.7500    0.0000 C   0  0  0  0  0  0  0  0  0  0  0  0
    5.1962   -0.0000    0.0000 C   0  0  0  0  0  0  0  0  0  0  0  0
    3.8971    2.2500    0.0000 O   0  0  0  0  0  0  0  0  0  0  0  0
    1.2990    2.2500    0.0000 O   0  0  0  0  0  0  0  0  0  0  0  0
  1  2  1  0
  2  3  1  0
  3  4  1  0
  4  5  1  0
  4  6  2  0
  2  7  2  0
M  END
>  <Name>  (136) 
Pentane-2,4-dione_(Acetylacetone)

>  <logK_Eu_z=3.0_T=25_I=0.1>  (136) 
5.94

>  <logK_Eu_z=3.0_T=25_I=2.0>  (136) 
5.35

>  <logK_Eu_z=3.0_T=30_I=0.0>  (136) 
6.1

$$$$

     RDKit          2D

  8  8  0  0  0  0  0  0  0  0999 V2000
    1.0607    0.0000    0.0000 C   0  0  0  0  0  0  0  0  0  0  0  0
    2.5607    0.0000    0.0000 O   0  0  0  0  0  0  0  0  0  0  0  0
   -0.0000   -1.0607    0.0000 C   0  0  0  0  0  0  0  0  0  0  0  0
   -0.0000   -2.5607    0.0000 O   0  0  0  0  0  0  0  0  0  0  0  0
   -1.0607    0.0000    0.0000 C   0  0  0  0  0  0  0  0  0  0  0  0
   -2.5607    0.0000    0.0000 O   0  0  0  0  0  0  0  0  0  0  0  0
    0.0000    1.0607    0.0000 C   0  0  0  0  0  0  0  0  0  0  0  0
    0.0000    2.5607    0.0000 O   0  0  0  0  0  0  0  0  0  0  0  0
  1  2  1  0
  1  3  1  0
  3  4  2  0
  3  5  1  0
  5  6  2  0
  5  7  1  0
  7  8  1  0
  7  1  2  0
M  END
>  <Name>  (137) 
Dihydroxycyclobutenedione_(Squaric_acid)

>  <logK_Eu_z=3.0_T=25_I=0.1>  (137) 
2.84

$$$$

     RDKit          2D

  8  8  0  0  0  0  0  0  0  0999 V2000
    2.5607    0.0000    0.0000 C   0  0  0  0  0  0  0  0  0  0  0  0
    1.0607    0.0000    0.0000 C   0  0  0  0  0  0  0  0  0  0  0  0
   -0.0000   -1.0607    0.0000 C   0  0  0  0  0  0  0  0  0  0  0  0
   -0.0000   -2.5607    0.0000 O   0  0  0  0  0  0  0  0  0  0  0  0
   -1.0607    0.0000    0.0000 C   0  0  0  0  0  0  0  0  0  0  0  0
   -2.5607    0.0000    0.0000 O   0  0  0  0  0  0  0  0  0  0  0  0
    0.0000    1.0607    0.0000 C   0  0  0  0  0  0  0  0  0  0  0  0
    0.0000    2.5607    0.0000 O   0  0  0  0  0  0  0  0  0  0  0  0
  1  2  1  0
  2  3  1  0
  3  4  2  0
  3  5  1  0
  5  6  2  0
  5  7  1  0
  7  8  1  0
  7  2  2  0
M  END
>  <Name>  (138) 
Methylhydroxycyclobutenedione

>  <logK_Eu_z=3.0_T=25_I=1.0>  (138) 
0.65

$$$$

     RDKit          2D

  9  9  0  0  0  0  0  0  0  0999 V2000
    1.7286    0.0000    0.0000 C   0  0  0  0  0  0  0  0  0  0  0  0
    3.2286   -0.0000    0.0000 O   0  0  0  0  0  0  0  0  0  0  0  0
    1.0777    1.3515    0.0000 C   0  0  0  0  0  0  0  0  0  0  0  0
   -0.3846    1.6852    0.0000 C   0  0  0  0  0  0  0  0  0  0  0  0
   -1.5574    0.7500    0.0000 C   0  0  0  0  0  0  0  0  0  0  0  0
   -1.5574   -0.7500    0.0000 C   0  0  0  0  0  0  0  0  0  0  0  0
   -0.3846   -1.6852    0.0000 C   0  0  0  0  0  0  0  0  0  0  0  0
    1.0777   -1.3515    0.0000 C   0  0  0  0  0  0  0  0  0  0  0  0
    2.0130   -2.5242    0.0000 O   0  0  0  0  0  0  0  0  0  0  0  0
  1  2  1  0
  1  3  2  0
  3  4  1  0
  4  5  2  0
  5  6  1  0
  6  7  2  0
  7  8  1  0
  8  9  2  0
  8  1  1  0
M  END
>  <Name>  (139) 
1-Hydroxycyclohepta-3,5,7-trien-2-one_(Tropolone)

>  <logK_Eu_z=3.0_T=25_I=0.1>  (139) 
7.1

$$$$

     RDKit          2D

  9  9  0  0  0  0  0  0  0  0999 V2000
    1.5000    0.0000    0.0000 O   0  0  0  0  0  0  0  0  0  0  0  0
    0.7500   -1.2990    0.0000 C   0  0  0  0  0  0  0  0  0  0  0  0
   -0.7500   -1.2990    0.0000 C   0  0  0  0  0  0  0  0  0  0  0  0
   -1.5000    0.0000    0.0000 C   0  0  0  0  0  0  0  0  0  0  0  0
   -3.0000    0.0000    0.0000 O   0  0  0  0  0  0  0  0  0  0  0  0
   -0.7500    1.2990    0.0000 C   0  0  0  0  0  0  0  0  0  0  0  0
   -1.5000    2.5981    0.0000 O   0  0  0  0  0  0  0  0  0  0  0  0
    0.7500    1.2990    0.0000 C   0  0  0  0  0  0  0  0  0  0  0  0
    1.5000    2.5981    0.0000 C   0  0  0  0  0  0  0  0  0  0  0  0
  1  2  1  0
  2  3  2  0
  3  4  1  0
  4  5  2  0
  4  6  1  0
  6  7  1  0
  6  8  2  0
  8  9  1  0
  8  1  1  0
M  END
>  <Name>  (140) 
3-Hydroxy-2-methyl-4-pyrone_(Maltol)

>  <logK_Eu_z=3.0_T=30_I=0.1>  (140) 
6.54

$$$$

     RDKit          2D

 10 10  0  0  0  0  0  0  0  0999 V2000
    1.5000    0.0000    0.0000 C   0  0  0  0  0  0  0  0  0  0  0  0
    3.0000    0.0000    0.0000 O   0  0  0  0  0  0  0  0  0  0  0  0
    0.7500   -1.2990    0.0000 C   0  0  0  0  0  0  0  0  0  0  0  0
   -0.7500   -1.2990    0.0000 O   0  0  0  0  0  0  0  0  0  0  0  0
   -1.5000    0.0000    0.0000 C   0  0  0  0  0  0  0  0  0  0  0  0
   -3.0000    0.0000    0.0000 C   0  0  0  0  0  0  0  0  0  0  0  0
   -3.7500    1.2990    0.0000 O   0  0  0  0  0  0  0  0  0  0  0  0
   -0.7500    1.2990    0.0000 C   0  0  0  0  0  0  0  0  0  0  0  0
    0.7500    1.2990    0.0000 C   0  0  0  0  0  0  0  0  0  0  0  0
    1.5000    2.5981    0.0000 O   0  0  0  0  0  0  0  0  0  0  0  0
  1  2  1  0
  1  3  2  0
  3  4  1  0
  4  5  1  0
  5  6  1  0
  6  7  1  0
  5  8  2  0
  8  9  1  0
  9 10  2  0
  9  1  1  0
M  END
>  <Name>  (141) 
5-Hydroxy-2-hydroxymethyl-4-pyrone_(Kojic_acid)

>  <logK_Eu_z=3.0_T=25_I=0.1>  (141) 
6.1

>  <logK_Eu_z=3.0_T=25_I=2.0>  (141) 
5.72

$$$$

     RDKit          2D

 11 11  0  0  0  0  0  0  0  0999 V2000
    1.5000    0.0000    0.0000 O   0  0  0  0  0  0  0  0  0  0  0  0
    0.7500   -1.2990    0.0000 C   0  0  0  0  0  0  0  0  0  0  0  0
    1.5000   -2.5981    0.0000 C   0  0  0  0  0  0  0  0  0  0  0  0
   -0.7500   -1.2990    0.0000 C   0  0  0  0  0  0  0  0  0  0  0  0
   -1.5000    0.0000    0.0000 C   0  0  0  0  0  0  0  0  0  0  0  0
   -0.7500    1.2990    0.0000 C   0  0  0  0  0  0  0  0  0  0  0  0
    0.7500    1.2990    0.0000 C   0  0  0  0  0  0  0  0  0  0  0  0
    1.5000    2.5981    0.0000 C   0  0  0  0  0  0  0  0  0  0  0  0
    3.0000    2.5981    0.0000 O   0  0  0  0  0  0  0  0  0  0  0  0
   -3.0000    0.0000    0.0000 O   0  0  0  0  0  0  0  0  0  0  0  0
   -1.5000   -2.5981    0.0000 O   0  0  0  0  0  0  0  0  0  0  0  0
  1  2  1  0
  2  3  1  0
  2  4  2  0
  4  5  1  0
  5  6  1  0
  6  7  2  0
  7  8  1  0
  8  9  1  0
  5 10  2  0
  4 11  1  0
  7  1  1  0
M  END
>  <Name>  (142) 
5-Hydroxy-2-hydroxymethyl-6-methyl-4-pyrone_(6-Methylkojic_acid)

>  <logK_Eu_z=3.0_T=25_I=0.1>  (142) 
6.42

$$$$

     RDKit          2D

 11 11  0  0  0  0  0  0  0  0999 V2000
    3.0000    0.0000    0.0000 Br  0  0  0  0  0  0  0  0  0  0  0  0
    1.5000    0.0000    0.0000 C   0  0  0  0  0  0  0  0  0  0  0  0
    0.7500   -1.2990    0.0000 C   0  0  0  0  0  0  0  0  0  0  0  0
   -0.7500   -1.2990    0.0000 C   0  0  0  0  0  0  0  0  0  0  0  0
   -1.5000    0.0000    0.0000 C   0  0  0  0  0  0  0  0  0  0  0  0
   -0.7500    1.2990    0.0000 C   0  0  0  0  0  0  0  0  0  0  0  0
   -1.5000    2.5981    0.0000 C   0  0  0  0  0  0  0  0  0  0  0  0
   -0.7500    3.8971    0.0000 O   0  0  0  0  0  0  0  0  0  0  0  0
    0.7500    1.2990    0.0000 O   0  0  0  0  0  0  0  0  0  0  0  0
   -1.5000   -2.5981    0.0000 O   0  0  0  0  0  0  0  0  0  0  0  0
    1.5000   -2.5981    0.0000 O   0  0  0  0  0  0  0  0  0  0  0  0
  1  2  1  0
  2  3  2  0
  3  4  1  0
  4  5  1  0
  5  6  2  0
  6  7  1  0
  7  8  1  0
  6  9  1  0
  4 10  2  0
  3 11  1  0
  9  2  1  0
M  END
>  <Name>  (143) 
6-Bromo-5-hydroxy-2-hydroxymethyl-4-pyrone_(6-Bromokojic_acid)

>  <logK_Eu_z=3.0_T=25_I=0.1>  (143) 
5.3

$$$$

     RDKit          2D

 11 11  0  0  0  0  0  0  0  0999 V2000
    3.0000    0.0000    0.0000 I   0  0  0  0  0  0  0  0  0  0  0  0
    1.5000    0.0000    0.0000 C   0  0  0  0  0  0  0  0  0  0  0  0
    0.7500   -1.2990    0.0000 C   0  0  0  0  0  0  0  0  0  0  0  0
   -0.7500   -1.2990    0.0000 C   0  0  0  0  0  0  0  0  0  0  0  0
   -1.5000    0.0000    0.0000 C   0  0  0  0  0  0  0  0  0  0  0  0
   -0.7500    1.2990    0.0000 C   0  0  0  0  0  0  0  0  0  0  0  0
   -1.5000    2.5981    0.0000 C   0  0  0  0  0  0  0  0  0  0  0  0
   -0.7500    3.8971    0.0000 O   0  0  0  0  0  0  0  0  0  0  0  0
    0.7500    1.2990    0.0000 O   0  0  0  0  0  0  0  0  0  0  0  0
   -1.5000   -2.5981    0.0000 O   0  0  0  0  0  0  0  0  0  0  0  0
    1.5000   -2.5981    0.0000 O   0  0  0  0  0  0  0  0  0  0  0  0
  1  2  1  0
  2  3  2  0
  3  4  1  0
  4  5  1  0
  5  6  2  0
  6  7  1  0
  7  8  1  0
  6  9  1  0
  4 10  2  0
  3 11  1  0
  9  2  1  0
M  END
>  <Name>  (144) 
5-Hydroxy-2-hydroxymethyl-6-iodo-4-pyrone_(6-Iodokojic_acid)

>  <logK_Eu_z=3.0_T=25_I=0.1>  (144) 
5.38

$$$$

     RDKit          2D

 12 12  0  0  0  0  0  0  0  0999 V2000
    1.5000    0.0000    0.0000 O   0  0  0  0  0  0  0  0  0  0  0  0
    0.7500   -1.2990    0.0000 C   0  0  0  0  0  0  0  0  0  0  0  0
    1.5000   -2.5981    0.0000 C   0  0  0  0  0  0  0  0  0  0  0  0
    0.7500   -3.8971    0.0000 O   0  0  0  0  0  0  0  0  0  0  0  0
   -0.7500   -1.2990    0.0000 C   0  0  0  0  0  0  0  0  0  0  0  0
   -1.5000    0.0000    0.0000 C   0  0  0  0  0  0  0  0  0  0  0  0
   -0.7500    1.2990    0.0000 C   0  0  0  0  0  0  0  0  0  0  0  0
    0.7500    1.2990    0.0000 C   0  0  0  0  0  0  0  0  0  0  0  0
    1.5000    2.5981    0.0000 C   0  0  0  0  0  0  0  0  0  0  0  0
    3.0000    2.5981    0.0000 O   0  0  0  0  0  0  0  0  0  0  0  0
   -1.5000    2.5981    0.0000 O   0  0  0  0  0  0  0  0  0  0  0  0
   -3.0000    0.0000    0.0000 O   0  0  0  0  0  0  0  0  0  0  0  0
  1  2  1  0
  2  3  1  0
  3  4  1  0
  2  5  2  0
  5  6  1  0
  6  7  1  0
  7  8  2  0
  8  9  1  0
  9 10  1  0
  7 11  1  0
  6 12  2  0
  8  1  1  0
M  END
>  <Name>  (145) 
3-Hydroxy-2,6-bis(hydroxymethyl)-4-pyrone_(6-Hydroxymethylkojic_acid)

>  <logK_Eu_z=3.0_T=25_I=0.1>  (145) 
6.06

$$$$

     RDKit          2D

  1  0  0  0  0  0  0  0  0  0999 V2000
    0.0000    0.0000    0.0000 O   0  0  0  0  0  1  0  0  0  0  0  0
M  CHG  1   1  -1
M  END
>  <Name>  (146) 
Hydroxide_ion

>  <logK_Eu_z=3.0_T=25_I=0.5>  (146) 
5.42

$$$$

     RDKit          2D

  3  2  0  0  0  0  0  0  0  0999 V2000
    0.0000    0.0000    0.0000 C   0  0  0  0  0  0  0  0  0  0  0  0
   -0.0000   -1.5000    0.0000 S   0  0  0  0  0  0  0  0  0  0  0  0
    0.0000    1.5000    0.0000 N   0  0  0  0  0  0  0  0  0  0  0  0
  1  2  1  0
  1  3  3  0
M  END
>  <Name>  (147) 
Hydrogen_thiocyanate_(Thiocyanic_acid)

>  <logK_Eu_z=3.0_T=30_I=1.0>  (147) 
0.15

>  <logK_Eu_z=3.0_T=25_I=2.0>  (147) 
0.17

>  <logK_Eu_z=3.0_T=25_I=5.0>  (147) 
0.38

>  <logK_Eu_z=3.0_T=25_I=0.0>  (147) 
0.7

$$$$

     RDKit          2D

  3  2  0  0  0  0  0  0  0  0999 V2000
    1.2990    0.7500    0.0000 N   0  0  0  0  0  4  0  0  0  0  0  0
    0.0000    0.0000    0.0000 N   0  0  0  0  0  0  0  0  0  0  0  0
    2.5981    1.5000    0.0000 N   0  0  0  0  0  2  0  0  0  0  0  0
  1  2  2  0
  1  3  2  0
M  CHG  2   1   1   3  -1
M  END
>  <Name>  (148) 
Hydrogen_azide_(Hydrazoic_acid)

>  <logK_Eu_z=3.0_T=25_I=0.5>  (148) 
0.57

$$$$

     RDKit          2D

  4  3  0  0  0  0  0  0  0  0999 V2000
    1.2990    0.7500    0.0000 O   0  0  0  0  0  1  0  0  0  0  0  0
    0.0000    0.0000    0.0000 N   0  0  0  0  0  4  0  0  0  0  0  0
   -1.2990    0.7500    0.0000 O   0  0  0  0  0  1  0  0  0  0  0  0
   -0.0000   -1.5000    0.0000 O   0  0  0  0  0  0  0  0  0  0  0  0
  1  2  1  0
  2  3  1  0
  2  4  2  0
M  CHG  3   1  -1   2   1   3  -1
M  END
>  <Name>  (149) 
Nitrate_ion

>  <logK_Eu_z=3.0_T=25_I=0.5>  (149) 
0.44

>  <logK_Eu_z=3.0_T=25_I=1.0>  (149) 
0.31

>  <logK_Eu_z=3.0_T=25_I=2.0>  (149) 
0.26

>  <logK_Eu_z=3.0_T=25_I=3.0>  (149) 
0.23

>  <logK_Eu_z=3.0_T=25_I=4.0>  (149) 
0.2

>  <logK_Eu_z=3.0_T=25_I=0.0>  (149) 
1.22

$$$$

     RDKit          2D

  3  2  0  0  0  0  0  0  0  0999 V2000
    1.2990    0.7500    0.0000 P   0  0  0  0  0  0  0  0  0  0  0  0
    0.0000    0.0000    0.0000 O   0  0  0  0  0  0  0  0  0  0  0  0
    2.5981   -0.0000    0.0000 O   0  0  0  0  0  0  0  0  0  0  0  0
  1  2  2  0
  1  3  1  0
M  END
>  <Name>  (150) 
Hydrogen_hypophosphite_(Hypophosphorous_acid)

>  <logK_Eu_z=3.0_T=25_I=0.0>  (150) 
2.27

$$$$

     RDKit          2D

  1  0  0  0  0  0  0  0  0  0999 V2000
    0.0000    0.0000    0.0000 F   0  0  0  0  0  0  0  0  0  0  0  0
M  END
>  <Name>  (151) 
Hydrogen_fluoride_(Hydrofluoric_acid)

>  <logK_Eu_z=3.0_T=25_I=0.1>  (151) 
3.6

>  <logK_Eu_z=3.0_T=25_I=0.5>  (151) 
3.3

>  <logK_Eu_z=3.0_T=25_I=1.0>  (151) 
3.19

>  <logK_Eu_z=3.0_T=25_I=0.0>  (151) 
4.24

$$$$

     RDKit          2D

  1  0  0  0  0  0  0  0  0  0999 V2000
    0.0000    0.0000    0.0000 Cl  0  0  0  0  0 15  0  0  0  0  0  0
M  CHG  1   1  -1
M  END
>  <Name>  (152) 
Chloride_ion

>  <logK_Eu_z=3.0_T=25_I=1.0>  (152) 
-0.1

>  <logK_Eu_z=3.0_T=20_I=3.0>  (152) 
-0.28

>  <logK_Eu_z=3.0_T=25_I=4.0>  (152) 
-0.15

$$$$

     RDKit          2D

  4  3  0  0  0  0  0  0  0  0999 V2000
    1.2990    0.7500    0.0000 Cl  0  0  0  0  0  0  0  0  0  0  0  0
    0.0000    0.0000    0.0000 O   0  0  0  0  0  1  0  0  0  0  0  0
    2.5981   -0.0000    0.0000 O   0  0  0  0  0  0  0  0  0  0  0  0
    1.2990    2.2500    0.0000 O   0  0  0  0  0  0  0  0  0  0  0  0
  1  2  1  0
  1  3  1  0
  1  4  1  0
M  CHG  4   1   2   2  -1   3  -1   4  -1
M  END
>  <Name>  (153) 
Chlorate_ion

>  <logK_Eu_z=3.0_T=25_I=0.1>  (153) 
0.02

$$$$

     RDKit          2D

  1  0  0  0  0  0  0  0  0  0999 V2000
    0.0000    0.0000    0.0000 Br  0  0  0  0  0 15  0  0  0  0  0  0
M  CHG  1   1  -1
M  END
>  <Name>  (154) 
Bromide_ion

>  <logK_Eu_z=3.0_T=25_I=1.0>  (154) 
-0.2

>  <logK_Eu_z=3.0_T=20_I=3.0>  (154) 
-0.4

$$$$

     RDKit          2D

  4  3  0  0  0  0  0  0  0  0999 V2000
    0.0000    0.0000    0.0000 O   0  0  0  0  0  1  0  0  0  0  0  0
    1.2990    0.7500    0.0000 Br  0  0  0  0  0  0  0  0  0  0  0  0
    2.5981   -0.0000    0.0000 O   0  0  0  0  0  0  0  0  0  0  0  0
    1.2990    2.2500    0.0000 O   0  0  0  0  0  0  0  0  0  0  0  0
  1  2  1  0
  2  3  1  0
  2  4  1  0
M  CHG  4   1  -1   2   2   3  -1   4  -1
M  END
>  <Name>  (155) 
Bromate_ion

>  <logK_Eu_z=3.0_T=25_I=0.1>  (155) 
0.58

$$$$

     RDKit          2D

  1  0  0  0  0  0  0  0  0  0999 V2000
    0.0000    0.0000    0.0000 I   0  0  0  0  0 15  0  0  0  0  0  0
M  CHG  1   1  -1
M  END
>  <Name>  (156) 
Iodide_ion

>  <logK_Eu_z=3.0_T=25_I=1.0>  (156) 
-0.4

$$$$

     RDKit          2D

  4  3  0  0  0  0  0  0  0  0999 V2000
    1.2990    0.7500    0.0000 I   0  0  0  0  0  0  0  0  0  0  0  0
    0.0000    0.0000    0.0000 O   0  0  0  0  0  0  0  0  0  0  0  0
    2.5981   -0.0000    0.0000 O   0  0  0  0  0  0  0  0  0  0  0  0
    1.2990    2.2500    0.0000 O   0  0  0  0  0  0  0  0  0  0  0  0
  1  2  1  0
  1  3  1  0
  1  4  1  0
M  CHG  3   1   2   3  -1   4  -1
M  END
>  <Name>  (157) 
Hydrogen_iodate_(Iodic_acid)

>  <logK_Eu_z=3.0_T=25_I=0.1>  (157) 
1.15

>  <logK_Eu_z=3.0_T=25_I=0.0>  (157) 
1.83

$$$$
***** TPAEN.mol2
     RDKit          2D

 44 47  0  0  0  0  0  0  0  0999 V2000
   -2.5981   -1.5000    0.0000 C   0  0  0  0  0  0  0  0  0  0  0  0
   -2.5981   -2.5000    0.0000 C   0  0  0  0  0  0  0  0  0  0  0  0
   -3.4641   -3.0000    0.0000 N   0  0  0  0  0  0  0  0  0  0  0  0
   -1.7321   -1.0000    0.0000 N   0  0  0  0  0  0  0  0  0  0  0  0
   -3.4641   -4.0000    0.0000 C   0  0  0  0  0  0  0  0  0  0  0  0
   -4.3301   -2.5000    0.0000 C   0  0  0  0  0  0  0  0  0  0  0  0
   -1.7321   -0.0000    0.0000 C   0  0  0  0  0  0  0  0  0  0  0  0
   -0.8660   -1.5000    0.0000 C   0  0  0  0  0  0  0  0  0  0  0  0
   -5.1962   -3.0000    0.0000 C   0  0  0  0  0  0  0  0  0  0  0  0
   -6.0622   -2.5000    0.0000 C   0  0  0  0  0  0  0  0  0  0  0  0
   -6.9282   -3.0000    0.0000 C   0  0  0  0  0  0  0  0  0  0  0  0
   -6.9282   -4.0000    0.0000 C   0  0  0  0  0  0  0  0  0  0  0  0
   -6.0622   -4.5000    0.0000 C   0  0  0  0  0  0  0  0  0  0  0  0
   -5.1962   -4.0000    0.0000 N   0  0  0  0  0  0  0  0  0  0  0  0
   -6.0622   -5.5000    0.0000 C   0  0  0  0  0  0  0  0  0  0  0  0
   -5.1962   -6.0000    0.0000 O   0  0  0  0  0  0  0  0  0  0  0  0
   -6.9282   -6.0000    0.0000 O   0  0  0  0  0  0  0  0  0  0  0  0
   -2.5981   -4.5000    0.0000 C   0  0  0  0  0  0  0  0  0  0  0  0
   -1.7321   -4.0000    0.0000 C   0  0  0  0  0  0  0  0  0  0  0  0
   -0.8660   -4.5000    0.0000 C   0  0  0  0  0  0  0  0  0  0  0  0
   -0.8660   -5.5000    0.0000 C   0  0  0  0  0  0  0  0  0  0  0  0
   -1.7321   -6.0000    0.0000 C   0  0  0  0  0  0  0  0  0  0  0  0
   -2.5981   -5.5000    0.0000 N   0  0  0  0  0  0  0  0  0  0  0  0
   -1.7321   -7.0000    0.0000 C   0  0  0  0  0  0  0  0  0  0  0  0
   -2.5981   -7.5000    0.0000 O   0  0  0  0  0  0  0  0  0  0  0  0
   -0.8660   -7.5000    0.0000 O   0  0  0  0  0  0  0  0  0  0  0  0
   -2.5981    0.5000    0.0000 C   0  0  0  0  0  0  0  0  0  0  0  0
   -3.4641    0.0000    0.0000 C   0  0  0  0  0  0  0  0  0  0  0  0
   -4.3301    0.5000    0.0000 C   0  0  0  0  0  0  0  0  0  0  0  0
   -4.3301    1.5000    0.0000 C   0  0  0  0  0  0  0  0  0  0  0  0
   -3.4641    2.0000    0.0000 C   0  0  0  0  0  0  0  0  0  0  0  0
   -2.5981    1.5000    0.0000 N   0  0  0  0  0  0  0  0  0  0  0  0
   -3.4641    3.0000    0.0000 C   0  0  0  0  0  0  0  0  0  0  0  0
   -2.5981    3.5000    0.0000 O   0  0  0  0  0  0  0  0  0  0  0  0
   -4.3301    3.5000    0.0000 O   0  0  0  0  0  0  0  0  0  0  0  0
   -0.0000   -1.0000    0.0000 C   0  0  0  0  0  0  0  0  0  0  0  0
    0.8660   -1.5000    0.0000 C   0  0  0  0  0  0  0  0  0  0  0  0
    1.7321   -1.0000    0.0000 C   0  0  0  0  0  0  0  0  0  0  0  0
    1.7321   -0.0000    0.0000 C   0  0  0  0  0  0  0  0  0  0  0  0
    0.8660    0.5000    0.0000 C   0  0  0  0  0  0  0  0  0  0  0  0
    0.0000   -0.0000    0.0000 N   0  0  0  0  0  0  0  0  0  0  0  0
    0.8660    1.5000    0.0000 C   0  0  0  0  0  0  0  0  0  0  0  0
    0.0000    2.0000    0.0000 O   0  0  0  0  0  0  0  0  0  0  0  0
    1.7321    2.0000    0.0000 O   0  0  0  0  0  0  0  0  0  0  0  0
  1  2  1  0
  1  4  1  0
  2  3  1  0
  3  5  1  0
  3  6  1  0
  4  7  1  0
  4  8  1  0
  5 18  1  0
  6  9  1  0
  7 27  1  0
  8 36  1  0
  9 10  2  0
  9 14  1  0
 10 11  1  0
 11 12  2  0
 12 13  1  0
 13 14  2  0
 13 15  1  0
 15 16  2  0
 15 17  1  0
 18 19  2  0
 18 23  1  0
 19 20  1  0
 20 21  2  0
 21 22  1  0
 22 23  2  0
 22 24  1  0
 24 25  2  0
 24 26  1  0
 27 28  2  0
 27 32  1  0
 28 29  1  0
 29 30  2  0
 30 31  1  0
 31 32  2  0
 31 33  1  0
 33 34  2  0
 33 35  1  0
 36 37  2  0
 36 41  1  0
 37 38  1  0
 38 39  2  0
 39 40  1  0
 40 41  2  0
 40 42  1  0
 42 43  2  0
 42 44  1  0
M  END
>  <logK_Eu_z=3.0_T=25_I=1.0>  (158) 
2.8

$$$$
***** TODGA.MOL2
     RDKit          2D

 41 40  0  0  0  0  0  0  0  0999 V2000
   -2.9474    3.4033    0.0000 C   0  0  0  0  0  0  0  0  0  0  0  0
   -2.4561    4.2542    0.0000 C   0  0  0  0  0  0  0  0  0  0  0  0
   -0.9825    5.1050    0.0000 C   0  0  0  0  0  0  0  0  0  0  0  0
    0.0000    5.1050    0.0000 C   0  0  0  0  0  0  0  0  0  0  0  0
   -1.4737    4.2542    0.0000 O   0  0  0  0  0  0  0  0  0  0  0  0
    0.4912    4.2542    0.0000 O   0  0  0  0  0  0  0  0  0  0  0  0
   -3.9298    3.4033    0.0000 O   0  0  0  0  0  0  0  0  0  0  0  0
    0.9825    6.8067    0.0000 N   0  0  0  0  0  0  0  0  0  0  0  0
   -2.4561    2.5525    0.0000 N   0  0  0  0  0  0  0  0  0  0  0  0
    0.4912    7.6575    0.0000 C   0  0  0  0  0  0  0  0  0  0  0  0
   -0.4912    7.6575    0.0000 C   0  0  0  0  0  0  0  0  0  0  0  0
   -0.9825    8.5083    0.0000 C   0  0  0  0  0  0  0  0  0  0  0  0
   -1.9649    8.5083    0.0000 C   0  0  0  0  0  0  0  0  0  0  0  0
   -2.4561    9.3592    0.0000 C   0  0  0  0  0  0  0  0  0  0  0  0
   -3.4386    9.3592    0.0000 C   0  0  0  0  0  0  0  0  0  0  0  0
   -3.9298    8.5083    0.0000 C   0  0  0  0  0  0  0  0  0  0  0  0
   -3.4386    7.6575    0.0000 C   0  0  0  0  0  0  0  0  0  0  0  0
   -3.4386    0.8508    0.0000 C   0  0  0  0  0  0  0  0  0  0  0  0
   -4.4211    0.8508    0.0000 C   0  0  0  0  0  0  0  0  0  0  0  0
   -4.9123    0.0000    0.0000 C   0  0  0  0  0  0  0  0  0  0  0  0
   -5.8947    0.0000    0.0000 C   0  0  0  0  0  0  0  0  0  0  0  0
   -6.3860   -0.8508    0.0000 C   0  0  0  0  0  0  0  0  0  0  0  0
   -7.3684   -0.8508    0.0000 C   0  0  0  0  0  0  0  0  0  0  0  0
   -7.8596    0.0000    0.0000 C   0  0  0  0  0  0  0  0  0  0  0  0
   -7.3684    0.8508    0.0000 C   0  0  0  0  0  0  0  0  0  0  0  0
    1.9649    6.8067    0.0000 C   0  0  0  0  0  0  0  0  0  0  0  0
    2.4561    5.9558    0.0000 C   0  0  0  0  0  0  0  0  0  0  0  0
    3.4386    5.9558    0.0000 C   0  0  0  0  0  0  0  0  0  0  0  0
    3.9298    5.1050    0.0000 C   0  0  0  0  0  0  0  0  0  0  0  0
    4.9123    5.1050    0.0000 C   0  0  0  0  0  0  0  0  0  0  0  0
    5.4035    4.2542    0.0000 C   0  0  0  0  0  0  0  0  0  0  0  0
    4.9123    3.4033    0.0000 C   0  0  0  0  0  0  0  0  0  0  0  0
    3.9298    3.4033    0.0000 C   0  0  0  0  0  0  0  0  0  0  0  0
   -1.4737    2.5525    0.0000 C   0  0  0  0  0  0  0  0  0  0  0  0
   -0.9825    1.7017    0.0000 C   0  0  0  0  0  0  0  0  0  0  0  0
    0.0000    1.7017    0.0000 C   0  0  0  0  0  0  0  0  0  0  0  0
    0.4912    0.8508    0.0000 C   0  0  0  0  0  0  0  0  0  0  0  0
    1.4737    0.8508    0.0000 C   0  0  0  0  0  0  0  0  0  0  0  0
    1.9649   -0.0000    0.0000 C   0  0  0  0  0  0  0  0  0  0  0  0
    1.4737   -0.8508    0.0000 C   0  0  0  0  0  0  0  0  0  0  0  0
    0.4912   -0.8508    0.0000 C   0  0  0  0  0  0  0  0  0  0  0  0
  1  2  1  0
  1  7  2  0
  1  9  1  0
  2  5  1  0
  3  4  1  0
  3  5  1  0
  4  6  2  0
  4  8  1  0
  8 10  1  0
  8 26  1  0
  9 18  1  0
  9 34  1  0
 10 11  1  0
 11 12  1  0
 12 13  1  0
 13 14  1  0
 14 15  1  0
 15 16  1  0
 16 17  1  0
 18 19  1  0
 19 20  1  0
 20 21  1  0
 21 22  1  0
 22 23  1  0
 23 24  1  0
 24 25  1  0
 26 27  1  0
 27 28  1  0
 28 29  1  0
 29 30  1  0
 30 31  1  0
 31 32  1  0
 32 33  1  0
 34 35  1  0
 35 36  1  0
 36 37  1  0
 37 38  1  0
 38 39  1  0
 39 40  1  0
 40 41  1  0
M  END
>  <logK_Eu_z=3.0_T=25_I=1.0>  (159) 
6.07

$$$$
***** TIOAC.MOL2
     RDKit          2D

  5  4  0  0  0  0  0  0  0  0999 V2000
    3.4641    0.0000    0.0000 O   0  0  0  0  0  0  0  0  0  0  0  0
    2.5981    0.5000    0.0000 C   0  0  0  0  0  0  0  0  0  0  0  0
    2.5981    1.5000    0.0000 O   0  0  0  0  0  0  0  0  0  0  0  0
    1.7321    0.0000    0.0000 C   0  0  0  0  0  0  0  0  0  0  0  0
    0.8660    0.5000    0.0000 S   0  0  0  0  0  0  0  0  0  0  0  0
  1  2  2  0
  2  3  1  0
  2  4  1  0
  4  5  1  0
M  END
>  <logK_Eu_z=3.0_T=25_I=1.0>  (160) 
2.51

$$$$
***** SUL.MOL2
     RDKit          2D

  5  4  0  0  0  0  0  0  0  0999 V2000
    1.0000   -0.0000    0.0000 S   0  0  0  0  0  0  0  0  0  0  0  0
    1.0000   -1.0000    0.0000 O   0  0  0  0  0  0  0  0  0  0  0  0
    2.0000   -0.0000    0.0000 O   0  0  0  0  0  0  0  0  0  0  0  0
    1.0000    1.0000    0.0000 O   0  0  0  0  0  0  0  0  0  0  0  0
    0.0000    0.0000    0.0000 O   0  0  0  0  0  0  0  0  0  0  0  0
  1  2  1  0
  1  3  1  0
  1  4  2  0
  1  5  2  0
M  END
>  <logK_Eu_z=3.0_T=25_I=1.0>  (161) 
3.67

$$$$
***** SUCC.MOL2
     RDKit          2D

  8  7  0  0  0  0  0  0  0  0999 V2000
    0.5000   -0.8660    0.0000 C   0  0  0  0  0  0  0  0  0  0  0  0
    0.0000   -1.7321    0.0000 C   0  0  0  0  0  0  0  0  0  0  0  0
   -1.0000   -1.7321    0.0000 C   0  0  0  0  0  0  0  0  0  0  0  0
   -1.5000   -0.8660    0.0000 C   0  0  0  0  0  0  0  0  0  0  0  0
   -1.0000   -0.0000    0.0000 O   0  0  0  0  0  0  0  0  0  0  0  0
    1.5000   -0.8660    0.0000 O   0  0  0  0  0  0  0  0  0  0  0  0
   -2.5000   -0.8660    0.0000 O   0  0  0  0  0  0  0  0  0  0  0  0
    0.0000   -0.0000    0.0000 O   0  0  0  0  0  0  0  0  0  0  0  0
  1  2  1  0
  1  6  2  0
  1  8  1  0
  2  3  1  0
  3  4  1  0
  4  5  2  0
  4  7  1  0
M  END
>  <logK_Eu_z=3.0_T=25_I=1.0>  (162) 
4.63

$$$$
***** SUBERIC.mol2
     RDKit          2D

 12 11  0  0  0  0  0  0  0  0999 V2000
   -4.5000   -0.8660    0.0000 C   0  0  0  0  0  0  0  0  0  0  0  0
   -3.5000   -0.8660    0.0000 C   0  0  0  0  0  0  0  0  0  0  0  0
   -3.0000   -1.7321    0.0000 C   0  0  0  0  0  0  0  0  0  0  0  0
   -2.0000   -1.7321    0.0000 C   0  0  0  0  0  0  0  0  0  0  0  0
   -1.5000   -2.5981    0.0000 C   0  0  0  0  0  0  0  0  0  0  0  0
   -0.5000   -2.5981    0.0000 C   0  0  0  0  0  0  0  0  0  0  0  0
    0.0000   -1.7321    0.0000 C   0  0  0  0  0  0  0  0  0  0  0  0
   -0.5000   -0.8660    0.0000 C   0  0  0  0  0  0  0  0  0  0  0  0
   -5.0000   -0.0000    0.0000 O   0  0  0  0  0  0  0  0  0  0  0  0
   -5.0000   -1.7321    0.0000 O   0  0  0  0  0  0  0  0  0  0  0  0
   -1.5000   -0.8660    0.0000 O   0  0  0  0  0  0  0  0  0  0  0  0
   -0.0000   -0.0000    0.0000 O   0  0  0  0  0  0  0  0  0  0  0  0
  1  2  1  0
  1  9  2  0
  1 10  1  0
  2  3  1  0
  3  4  1  0
  4  5  1  0
  5  6  1  0
  6  7  1  0
  7  8  1  0
  8 11  2  0
  8 12  1  0
M  END
>  <logK_Eu_z=3.0_T=25_I=1.0>  (163) 
2.96

$$$$
***** SO3-PH-BTP.mol2
     RDKit          2D

 62 68  0  0  0  0  0  0  0  0999 V2000
   -4.1019   -0.9775    0.0000 C   0  0  0  0  0  0  0  0  0  0  0  0
   -3.2553   -1.4663    0.0000 C   0  0  0  0  0  0  0  0  0  0  0  0
   -4.9484   -1.4663    0.0000 C   0  0  0  0  0  0  0  0  0  0  0  0
   -3.2553   -2.4438    0.0000 C   0  0  0  0  0  0  0  0  0  0  0  0
   -4.9484   -2.4438    0.0000 C   0  0  0  0  0  0  0  0  0  0  0  0
   -4.1019   -2.9326    0.0000 N   0  0  0  0  0  0  0  0  0  0  0  0
   -2.4087   -2.9326    0.0000 C   0  0  0  0  0  0  0  0  0  0  0  0
   -5.7950   -2.9326    0.0000 C   0  0  0  0  0  0  0  0  0  0  0  0
   -1.5622   -2.4438    0.0000 N   0  0  0  0  0  0  0  0  0  0  0  0
   -2.4087   -3.9101    0.0000 N   0  0  0  0  0  0  0  0  0  0  0  0
   -1.5622   -4.3989    0.0000 N   0  0  0  0  0  0  0  0  0  0  0  0
   -0.7156   -2.9326    0.0000 C   0  0  0  0  0  0  0  0  0  0  0  0
   -0.7156   -3.9101    0.0000 C   0  0  0  0  0  0  0  0  0  0  0  0
    0.1310   -2.4438    0.0000 C   0  0  0  0  0  0  0  0  0  0  0  0
    0.1310   -1.4663    0.0000 C   0  0  0  0  0  0  0  0  0  0  0  0
    0.9775   -0.9775    0.0000 C   0  0  0  0  0  0  0  0  0  0  0  0
    0.9775   -2.9326    0.0000 C   0  0  0  0  0  0  0  0  0  0  0  0
    1.8241   -1.4663    0.0000 C   0  0  0  0  0  0  0  0  0  0  0  0
    1.8241   -2.4438    0.0000 C   0  0  0  0  0  0  0  0  0  0  0  0
    0.9775   -0.0000    0.0000 S   0  0  0  0  0  0  0  0  0  0  0  0
    1.9551    0.0000    0.0000 O   0  0  0  0  0  0  0  0  0  0  0  0
    2.4438    0.8466    0.0000 Na  0  0  0  0  0  1  0  0  0  0  0  0
    0.9775    0.9775    0.0000 O   0  0  0  0  0  0  0  0  0  0  0  0
    0.0000   -0.0000    0.0000 O   0  0  0  0  0  0  0  0  0  0  0  0
    0.9775   -4.8876    0.0000 C   0  0  0  0  0  0  0  0  0  0  0  0
    1.8241   -4.3989    0.0000 C   0  0  0  0  0  0  0  0  0  0  0  0
    2.6707   -4.8876    0.0000 C   0  0  0  0  0  0  0  0  0  0  0  0
    0.9775   -5.8652    0.0000 C   0  0  0  0  0  0  0  0  0  0  0  0
    2.6707   -5.8652    0.0000 C   0  0  0  0  0  0  0  0  0  0  0  0
    1.8241   -6.3539    0.0000 C   0  0  0  0  0  0  0  0  0  0  0  0
    1.8241   -7.3315    0.0000 S   0  0  0  0  0  0  0  0  0  0  0  0
    0.8466   -7.3315    0.0000 O   0  0  0  0  0  0  0  0  0  0  0  0
    0.3578   -8.1780    0.0000 Na  0  0  0  0  0  1  0  0  0  0  0  0
    1.8241   -8.3090    0.0000 O   0  0  0  0  0  0  0  0  0  0  0  0
    2.8016   -7.3315    0.0000 O   0  0  0  0  0  0  0  0  0  0  0  0
   -5.7950   -3.9101    0.0000 N   0  0  0  0  0  0  0  0  0  0  0  0
   -6.6415   -2.4438    0.0000 N   0  0  0  0  0  0  0  0  0  0  0  0
   -7.4881   -2.9326    0.0000 N   0  0  0  0  0  0  0  0  0  0  0  0
   -6.6415   -4.3989    0.0000 C   0  0  0  0  0  0  0  0  0  0  0  0
   -7.4881   -3.9101    0.0000 C   0  0  0  0  0  0  0  0  0  0  0  0
   -6.6415   -6.3539    0.0000 C   0  0  0  0  0  0  0  0  0  0  0  0
   -7.4881   -6.8427    0.0000 C   0  0  0  0  0  0  0  0  0  0  0  0
   -5.7950   -6.8427    0.0000 C   0  0  0  0  0  0  0  0  0  0  0  0
   -7.4881   -7.8202    0.0000 C   0  0  0  0  0  0  0  0  0  0  0  0
   -5.7950   -7.8202    0.0000 C   0  0  0  0  0  0  0  0  0  0  0  0
   -6.6415   -8.3090    0.0000 C   0  0  0  0  0  0  0  0  0  0  0  0
   -4.9484   -8.3090    0.0000 S   0  0  0  0  0  0  0  0  0  0  0  0
   -4.4597   -7.4624    0.0000 O   0  0  0  0  0  0  0  0  0  0  0  0
   -4.1019   -8.7978    0.0000 O   0  0  0  0  0  0  0  0  0  0  0  0
   -5.4372   -9.1556    0.0000 O   0  0  0  0  0  0  0  0  0  0  0  0
   -8.3347   -4.3989    0.0000 C   0  0  0  0  0  0  0  0  0  0  0  0
   -8.3347   -5.3764    0.0000 C   0  0  0  0  0  0  0  0  0  0  0  0
   -9.1812   -3.9101    0.0000 C   0  0  0  0  0  0  0  0  0  0  0  0
   -9.1812   -5.8652    0.0000 C   0  0  0  0  0  0  0  0  0  0  0  0
  -10.0278   -4.3989    0.0000 C   0  0  0  0  0  0  0  0  0  0  0  0
  -10.0278   -5.3764    0.0000 C   0  0  0  0  0  0  0  0  0  0  0  0
   -9.1812   -6.8427    0.0000 S   0  0  0  0  0  0  0  0  0  0  0  0
  -10.1588   -6.8427    0.0000 O   0  0  0  0  0  0  0  0  0  0  0  0
  -10.6475   -7.6893    0.0000 Na  0  0  0  0  0  1  0  0  0  0  0  0
   -9.1812   -7.8202    0.0000 O   0  0  0  0  0  0  0  0  0  0  0  0
   -8.2037   -6.8427    0.0000 O   0  0  0  0  0  0  0  0  0  0  0  0
   -3.4821   -7.4624    0.0000 Na  0  0  0  0  0  1  0  0  0  0  0  0
  1  2  2  0
  1  3  1  0
  2  4  1  0
  3  5  2  0
  4  6  2  0
  4  7  1  0
  5  6  1  0
  5  8  1  0
  7  9  2  0
  7 10  1  0
  8 36  2  0
  8 37  1  0
  9 12  1  0
 10 11  2  0
 11 13  1  0
 12 13  2  0
 12 14  1  0
 13 25  1  0
 14 15  2  0
 14 17  1  0
 15 16  1  0
 16 18  2  0
 16 20  1  0
 17 19  2  0
 18 19  1  0
 20 21  1  0
 20 23  2  0
 20 24  2  0
 21 22  1  0
 25 26  2  0
 25 28  1  0
 26 27  1  0
 27 29  2  0
 28 30  2  0
 29 30  1  0
 30 31  1  0
 31 32  1  0
 31 34  2  0
 31 35  2  0
 32 33  1  0
 36 39  1  0
 37 38  2  0
 38 40  1  0
 39 40  2  0
 39 41  1  0
 40 51  1  0
 41 42  2  0
 41 43  1  0
 42 44  1  0
 43 45  2  0
 44 46  2  0
 45 46  1  0
 45 47  1  0
 47 48  1  0
 47 49  2  0
 47 50  2  0
 48 62  1  0
 51 52  2  0
 51 53  1  0
 52 54  1  0
 53 55  2  0
 54 56  2  0
 54 57  1  0
 55 56  1  0
 57 58  1  0
 57 60  2  0
 57 61  2  0
 58 59  1  0
M  END
>  <logK_Eu_z=3.0_T=25_I=1.0>  (164) 
5.2

$$$$
***** SO3-PH-BTBP.MOL2
     RDKit          2D

 64 71  0  0  0  0  0  0  0  0999 V2000
    6.7823    1.9579    0.0000 C   0  0  0  0  0  0  0  0  0  0  0  0
    5.9346    1.4684    0.0000 C   0  0  0  0  0  0  0  0  0  0  0  0
    5.9346    0.4895    0.0000 C   0  0  0  0  0  0  0  0  0  0  0  0
    5.0868    0.0000    0.0000 C   0  0  0  0  0  0  0  0  0  0  0  0
    6.7823    2.9368    0.0000 C   0  0  0  0  0  0  0  0  0  0  0  0
    7.6301    3.4263    0.0000 C   0  0  0  0  0  0  0  0  0  0  0  0
    4.2390    0.4895    0.0000 C   0  0  0  0  0  0  0  0  0  0  0  0
    8.4779    2.9368    0.0000 C   0  0  0  0  0  0  0  0  0  0  0  0
    4.2390    1.4684    0.0000 C   0  0  0  0  0  0  0  0  0  0  0  0
    8.4779    1.9579    0.0000 C   0  0  0  0  0  0  0  0  0  0  0  0
    5.0868    1.9579    0.0000 N   0  0  0  0  0  0  0  0  0  0  0  0
    7.6301    1.4684    0.0000 N   0  0  0  0  0  0  0  0  0  0  0  0
    9.3257    1.4684    0.0000 C   0  0  0  0  0  0  0  0  0  0  0  0
    3.3912    1.9579    0.0000 C   0  0  0  0  0  0  0  0  0  0  0  0
    2.5434    1.4684    0.0000 N   0  0  0  0  0  0  0  0  0  0  0  0
    9.3257    0.4895    0.0000 N   0  0  0  0  0  0  0  0  0  0  0  0
    3.3912    2.9368    0.0000 N   0  0  0  0  0  0  0  0  0  0  0  0
   10.1735    1.9579    0.0000 N   0  0  0  0  0  0  0  0  0  0  0  0
   10.1735    0.0000    0.0000 N   0  0  0  0  0  0  0  0  0  0  0  0
    2.5434    3.4263    0.0000 N   0  0  0  0  0  0  0  0  0  0  0  0
   11.0213    1.4684    0.0000 C   0  0  0  0  0  0  0  0  0  0  0  0
   11.0213    0.4895    0.0000 C   0  0  0  0  0  0  0  0  0  0  0  0
    1.6956    1.9579    0.0000 C   0  0  0  0  0  0  0  0  0  0  0  0
    1.6956    2.9368    0.0000 C   0  0  0  0  0  0  0  0  0  0  0  0
   12.7169   -0.4895    0.0000 C   0  0  0  0  0  0  0  0  0  0  0  0
   12.7169   -1.4684    0.0000 C   0  0  0  0  0  0  0  0  0  0  0  0
   11.8691    1.9579    0.0000 C   0  0  0  0  0  0  0  0  0  0  0  0
   11.8691    2.9368    0.0000 C   0  0  0  0  0  0  0  0  0  0  0  0
   -0.0000    3.9158    0.0000 C   0  0  0  0  0  0  0  0  0  0  0  0
   -0.8478    3.4263    0.0000 C   0  0  0  0  0  0  0  0  0  0  0  0
    0.8478    1.4684    0.0000 C   0  0  0  0  0  0  0  0  0  0  0  0
   -0.0000    1.9579    0.0000 C   0  0  0  0  0  0  0  0  0  0  0  0
   12.7169    1.4684    0.0000 C   0  0  0  0  0  0  0  0  0  0  0  0
   13.5647    0.0000    0.0000 C   0  0  0  0  0  0  0  0  0  0  0  0
   12.7169    3.4263    0.0000 C   0  0  0  0  0  0  0  0  0  0  0  0
   13.5647   -1.9579    0.0000 C   0  0  0  0  0  0  0  0  0  0  0  0
   -0.0000    4.8947    0.0000 C   0  0  0  0  0  0  0  0  0  0  0  0
   -1.6956    3.9158    0.0000 C   0  0  0  0  0  0  0  0  0  0  0  0
    0.8478    0.4895    0.0000 C   0  0  0  0  0  0  0  0  0  0  0  0
   -0.8478    1.4684    0.0000 C   0  0  0  0  0  0  0  0  0  0  0  0
   13.5647    1.9579    0.0000 C   0  0  0  0  0  0  0  0  0  0  0  0
   13.5647    2.9368    0.0000 C   0  0  0  0  0  0  0  0  0  0  0  0
   14.4125   -0.4895    0.0000 C   0  0  0  0  0  0  0  0  0  0  0  0
   14.4125   -1.4684    0.0000 C   0  0  0  0  0  0  0  0  0  0  0  0
   -0.8478    5.3842    0.0000 C   0  0  0  0  0  0  0  0  0  0  0  0
   -1.6956    4.8947    0.0000 C   0  0  0  0  0  0  0  0  0  0  0  0
   -0.8478    0.4895    0.0000 C   0  0  0  0  0  0  0  0  0  0  0  0
    0.0000    0.0000    0.0000 C   0  0  0  0  0  0  0  0  0  0  0  0
   -0.0000   -0.9789    0.0000 S   0  0  0  0  0  0  0  0  0  0  0  0
   -0.8478    6.3632    0.0000 S   0  0  0  0  0  0  0  0  0  0  0  0
   13.5647   -2.9368    0.0000 S   0  0  0  0  0  0  0  0  0  0  0  0
   12.7169    4.4053    0.0000 S   0  0  0  0  0  0  0  0  0  0  0  0
    0.8478   -1.4684    0.0000 O   0  0  0  0  0  0  0  0  0  0  0  0
   -0.0000    6.8526    0.0000 O   0  0  0  0  0  0  0  0  0  0  0  0
   14.4125   -3.4263    0.0000 O   0  0  0  0  0  0  0  0  0  0  0  0
   13.5647    4.8947    0.0000 O   0  0  0  0  0  0  0  0  0  0  0  0
   -0.8478   -1.4684    0.0000 O   0  0  0  0  0  0  0  0  0  0  0  0
   -0.8478   -2.4474    0.0000 Na  0  0  0  0  0  1  0  0  0  0  0  0
   -1.6956    6.8526    0.0000 O   0  0  0  0  0  0  0  0  0  0  0  0
   -2.5434    6.3632    0.0000 Na  0  0  0  0  0  1  0  0  0  0  0  0
   12.7169   -3.4263    0.0000 O   0  0  0  0  0  0  0  0  0  0  0  0
   12.7169   -4.4053    0.0000 Na  0  0  0  0  0  1  0  0  0  0  0  0
   11.8691    4.8947    0.0000 O   0  0  0  0  0  0  0  0  0  0  0  0
   11.8691    5.8737    0.0000 Na  0  0  0  0  0  1  0  0  0  0  0  0
  1  2  1  0
  1  5  2  0
  1 12  1  0
  2  3  2  0
  2 11  1  0
  3  4  1  0
  4  7  2  0
  5  6  1  0
  6  8  2  0
  7  9  1  0
  8 10  1  0
  9 11  2  0
  9 14  1  0
 10 12  2  0
 10 13  1  0
 13 16  2  0
 13 18  1  0
 14 15  2  0
 14 17  1  0
 15 23  1  0
 16 19  1  0
 17 20  2  0
 18 21  2  0
 19 22  2  0
 20 24  1  0
 21 22  1  0
 21 27  1  0
 22 25  1  0
 23 24  2  0
 23 31  1  0
 24 29  1  0
 25 26  2  0
 25 34  1  0
 26 36  1  0
 27 28  2  0
 27 33  1  0
 28 35  1  0
 29 30  2  0
 29 37  1  0
 30 38  1  0
 31 32  2  0
 31 39  1  0
 32 40  1  0
 33 41  2  0
 34 43  2  0
 35 42  2  0
 35 52  1  0
 36 44  2  0
 36 51  1  0
 37 45  2  0
 38 46  2  0
 39 48  2  0
 40 47  2  0
 41 42  1  0
 43 44  1  0
 45 50  1  0
 46 45  1  0
 47 48  1  0
 48 49  1  0
 49 53  2  0
 49 57  1  0
 50 54  2  0
 50 59  1  0
 51 55  2  0
 51 61  1  0
 52 56  2  0
 52 63  1  0
 57 58  1  0
 59 60  1  0
 61 62  1  0
 63 64  1  0
M  END
>  <logK_Eu_z=3.0_T=25_I=1.0>  (165) 
4.9

$$$$
***** SALYC.MOL2
     RDKit          2D

 10 10  0  0  0  0  0  0  0  0999 V2000
   -0.0000   -1.0000    0.0000 O   0  0  0  0  0  0  0  0  0  0  0  0
    0.0000    0.0000    0.0000 C   0  0  0  0  0  0  0  0  0  0  0  0
   -2.5981    0.5000    0.0000 O   0  0  0  0  0  0  0  0  0  0  0  0
   -1.7321    0.0000    0.0000 C   0  0  0  0  0  0  0  0  0  0  0  0
   -1.7321   -1.0000    0.0000 O   0  0  0  0  0  0  0  0  0  0  0  0
   -0.8660    0.5000    0.0000 C   0  0  0  0  0  0  0  0  0  0  0  0
    0.8660    0.5000    0.0000 C   0  0  0  0  0  0  0  0  0  0  0  0
    0.8660    1.5000    0.0000 C   0  0  0  0  0  0  0  0  0  0  0  0
   -0.8660    1.5000    0.0000 C   0  0  0  0  0  0  0  0  0  0  0  0
    0.0000    2.0000    0.0000 C   0  0  0  0  0  0  0  0  0  0  0  0
  1  2  1  0
  2  6  2  0
  3  4  2  0
  4  6  1  0
  5  4  1  0
  6  9  1  0
  7  8  2  0
  7  2  1  0
  9 10  2  0
 10  8  1  0
M  END
>  <logK_Eu_z=3.0_T=25_I=1.0>  (166) 
2.45

$$$$
***** PNIDA.MOL2
     RDKit          2D

 14 13  0  0  0  0  0  0  0  0999 V2000
    1.0000    1.7321    0.0000 C   0  0  0  0  0  0  0  0  0  0  0  0
    1.5000    0.8660    0.0000 C   0  0  0  0  0  0  0  0  0  0  0  0
   -0.5000    2.5981    0.0000 C   0  0  0  0  0  0  0  0  0  0  0  0
   -1.5000    2.5981    0.0000 C   0  0  0  0  0  0  0  0  0  0  0  0
    2.5000    0.8660    0.0000 O   0  0  0  0  0  0  0  0  0  0  0  0
   -2.0000    1.7321    0.0000 O   0  0  0  0  0  0  0  0  0  0  0  0
    1.0000    0.0000    0.0000 O   0  0  0  0  0  0  0  0  0  0  0  0
   -2.0000    3.4641    0.0000 O   0  0  0  0  0  0  0  0  0  0  0  0
    0.0000    1.7321    0.0000 N   0  0  0  0  0  0  0  0  0  0  0  0
   -0.5000    0.8660    0.0000 C   0  0  0  0  0  0  0  0  0  0  0  0
   -1.5000    0.8660    0.0000 C   0  0  0  0  0  0  0  0  0  0  0  0
   -2.0000    0.0000    0.0000 C   0  0  0  0  0  0  0  0  0  0  0  0
   -1.5000   -0.8660    0.0000 C   0  0  0  0  0  0  0  0  0  0  0  0
   -0.5000   -0.8660    0.0000 C   0  0  0  0  0  0  0  0  0  0  0  0
  1  2  1  0
  1  9  1  0
  2  5  2  0
  2  7  1  0
  3  4  1  0
  3  9  1  0
  4  6  2  0
  4  8  1  0
  9 10  1  0
 10 11  1  0
 11 12  1  0
 12 13  1  0
 13 14  1  0
M  END
>  <logK_Eu_z=3.0_T=25_I=1.0>  (167) 
6.8

$$$$
***** PIDA.MOL2
     RDKit          2D

 12 11  0  0  0  0  0  0  0  0999 V2000
   -2.5981    0.5000    0.0000 C   0  0  0  0  0  0  0  0  0  0  0  0
   -3.4641   -0.0000    0.0000 C   0  0  0  0  0  0  0  0  0  0  0  0
   -0.8660    0.5000    0.0000 C   0  0  0  0  0  0  0  0  0  0  0  0
   -0.8660    1.5000    0.0000 C   0  0  0  0  0  0  0  0  0  0  0  0
   -4.3301    0.5000    0.0000 O   0  0  0  0  0  0  0  0  0  0  0  0
   -1.7321    2.0000    0.0000 O   0  0  0  0  0  0  0  0  0  0  0  0
   -3.4641   -1.0000    0.0000 O   0  0  0  0  0  0  0  0  0  0  0  0
   -0.0000    2.0000    0.0000 O   0  0  0  0  0  0  0  0  0  0  0  0
   -1.7321   -0.0000    0.0000 N   0  0  0  0  0  0  0  0  0  0  0  0
   -1.7321   -1.0000    0.0000 C   0  0  0  0  0  0  0  0  0  0  0  0
   -0.8660   -1.5000    0.0000 C   0  0  0  0  0  0  0  0  0  0  0  0
    0.0000   -1.0000    0.0000 C   0  0  0  0  0  0  0  0  0  0  0  0
  1  2  1  0
  1  9  1  0
  2  5  2  0
  2  7  1  0
  3  4  1  0
  3  9  1  0
  4  6  2  0
  4  8  1  0
  9 10  1  0
 10 11  1  0
 11 12  1  0
M  END
>  <logK_Eu_z=3.0_T=25_I=1.0>  (168) 
6.8

$$$$
***** PEROX2SUL.MOL2
     RDKit          2D

 10  9  0  0  0  0  0  0  0  0999 V2000
   -1.5000   -1.8660    0.0000 O   0  0  0  0  0  0  0  0  0  0  0  0
   -1.0000   -1.0000    0.0000 O   0  0  0  0  0  0  0  0  0  0  0  0
    0.0000   -1.0000    0.0000 S   0  0  0  0  0  0  0  0  0  0  0  0
   -2.5000   -1.8660    0.0000 S   0  0  0  0  0  0  0  0  0  0  0  0
   -0.0000   -2.0000    0.0000 O   0  0  0  0  0  0  0  0  0  0  0  0
   -2.5000   -0.8660    0.0000 O   0  0  0  0  0  0  0  0  0  0  0  0
    1.0000   -1.0000    0.0000 O   0  0  0  0  0  0  0  0  0  0  0  0
   -0.0000   -0.0000    0.0000 O   0  0  0  0  0  0  0  0  0  0  0  0
   -3.5000   -1.8660    0.0000 O   0  0  0  0  0  0  0  0  0  0  0  0
   -2.5000   -2.8660    0.0000 O   0  0  0  0  0  0  0  0  0  0  0  0
  1  2  1  0
  1  4  1  0
  2  3  1  0
  3  5  1  0
  3  7  2  0
  3  8  2  0
  4  6  1  0
  4  9  2  0
  4 10  2  0
M  END
>  <logK_Eu_z=3.0_T=25_I=1.0>  (169) 
3.81

$$$$
***** PDTA.MOL2
     RDKit          2D

 21 20  0  0  1  0  0  0  0  0999 V2000
    3.8857    1.6826    0.0000 C   0  0  0  0  0  0  0  0  0  0  0  0
    4.8571    1.6826    0.0000 C   0  0  0  0  0  0  0  0  0  0  0  0
    3.8857    2.6540    0.0000 C   0  0  0  0  0  0  0  0  0  0  0  0
    5.3429    0.8413    0.0000 N   0  0  0  0  0  0  0  0  0  0  0  0
    1.9429    1.6826    0.0000 N   0  0  0  0  0  0  0  0  0  0  0  0
    4.8571    0.0000    0.0000 C   0  0  0  0  0  0  0  0  0  0  0  0
    3.8857    0.0000    0.0000 C   0  0  0  0  0  0  0  0  0  0  0  0
    6.3143    0.8413    0.0000 C   0  0  0  0  0  0  0  0  0  0  0  0
    6.8000    0.0000    0.0000 C   0  0  0  0  0  0  0  0  0  0  0  0
    1.4571    2.5238    0.0000 C   0  0  0  0  0  0  0  0  0  0  0  0
    1.9429    3.3651    0.0000 C   0  0  0  0  0  0  0  0  0  0  0  0
    1.4571    0.8413    0.0000 C   0  0  0  0  0  0  0  0  0  0  0  0
    0.4857    0.8413    0.0000 C   0  0  0  0  0  0  0  0  0  0  0  0
    3.4000    0.8413    0.0000 O   0  0  0  0  0  0  0  0  0  0  0  0
    6.3143   -0.8413    0.0000 O   0  0  0  0  0  0  0  0  0  0  0  0
    2.9143    3.3651    0.0000 O   0  0  0  0  0  0  0  0  0  0  0  0
   -0.0000    1.6826    0.0000 O   0  0  0  0  0  0  0  0  0  0  0  0
    3.4000   -0.8413    0.0000 O   0  0  0  0  0  0  0  0  0  0  0  0
    7.7714    0.0000    0.0000 O   0  0  0  0  0  0  0  0  0  0  0  0
    1.4571    4.2064    0.0000 O   0  0  0  0  0  0  0  0  0  0  0  0
   -0.0000   -0.0000    0.0000 O   0  0  0  0  0  0  0  0  0  0  0  0
  1  2  1  0
  1  3  1  6
  1  5  1  0
  2  4  1  0
  4  6  1  0
  4  8  1  0
  5 10  1  0
  5 12  1  0
  6  7  1  0
  7 14  2  0
  7 18  1  0
  8  9  1  0
  9 15  2  0
  9 19  1  0
 10 11  1  0
 11 16  2  0
 11 20  1  0
 12 13  1  0
 13 17  2  0
 13 21  1  0
M  END
>  <logK_Eu_z=3.0_T=25_I=1.0>  (170) 
18.23

$$$$
***** P_AEDNTA.MOL2
     RDKit          2D

 23 22  0  0  1  0  0  0  0  0999 V2000
   -4.1239    0.4762    0.0000 C   0  0  0  0  0  0  0  0  0  0  0  0
   -4.9487    0.9524    0.0000 C   0  0  0  0  0  0  0  0  0  0  0  0
   -4.6001   -0.3486    0.0000 C   0  0  0  0  0  0  0  0  0  0  0  0
   -6.5049   -0.3486    0.0000 C   0  0  0  0  0  0  0  0  0  0  0  0
   -6.9811   -1.1734    0.0000 C   0  0  0  0  0  0  0  0  0  0  0  0
   -4.9487    1.9048    0.0000 N   0  0  0  0  0  0  0  0  0  0  0  0
   -2.4744   -0.4762    0.0000 N   0  0  0  0  0  0  0  0  0  0  0  0
   -4.1239    2.3810    0.0000 C   0  0  0  0  0  0  0  0  0  0  0  0
   -3.2991    1.9048    0.0000 C   0  0  0  0  0  0  0  0  0  0  0  0
   -5.7735    2.3810    0.0000 C   0  0  0  0  0  0  0  0  0  0  0  0
   -5.7735    3.3333    0.0000 C   0  0  0  0  0  0  0  0  0  0  0  0
   -2.4744   -1.4286    0.0000 C   0  0  0  0  0  0  0  0  0  0  0  0
   -3.2991   -1.9048    0.0000 C   0  0  0  0  0  0  0  0  0  0  0  0
   -1.6496   -0.0000    0.0000 C   0  0  0  0  0  0  0  0  0  0  0  0
   -0.8248   -0.4762    0.0000 C   0  0  0  0  0  0  0  0  0  0  0  0
   -3.2991    0.9524    0.0000 O   0  0  0  0  0  0  0  0  0  0  0  0
   -4.9487    3.8095    0.0000 O   0  0  0  0  0  0  0  0  0  0  0  0
   -0.8248   -1.4286    0.0000 O   0  0  0  0  0  0  0  0  0  0  0  0
   -4.1239   -1.4286    0.0000 O   0  0  0  0  0  0  0  0  0  0  0  0
   -2.4744    2.3810    0.0000 O   0  0  0  0  0  0  0  0  0  0  0  0
   -6.5983    3.8095    0.0000 O   0  0  0  0  0  0  0  0  0  0  0  0
   -3.2991   -2.8571    0.0000 O   0  0  0  0  0  0  0  0  0  0  0  0
    0.0000   -0.0000    0.0000 O   0  0  0  0  0  0  0  0  0  0  0  0
  1  2  1  1
  1  3  1  0
  1  7  1  0
  2  6  1  0
  3  4  1  0
  4  5  1  0
  6  8  1  0
  6 10  1  0
  7 12  1  0
  7 14  1  0
  8  9  1  0
  9 16  2  0
  9 20  1  0
 10 11  1  0
 11 17  2  0
 11 21  1  0
 12 13  1  0
 13 19  2  0
 13 22  1  0
 14 15  1  0
 15 18  2  0
 15 23  1  0
M  END
>  <logK_Eu_z=3.0_T=25_I=1.0>  (171) 
18.4

$$$$
***** OTM_NTA.MOL2
     RDKit          2D

 21 20  0  0  0  0  0  0  0  0999 V2000
   -4.3301   -1.5000    0.0000 O   0  0  0  0  0  0  0  0  0  0  0  0
   -5.1962   -1.0000    0.0000 C   0  0  0  0  0  0  0  0  0  0  0  0
   -6.0622   -1.5000    0.0000 C   0  0  0  0  0  0  0  0  0  0  0  0
   -6.9282   -1.0000    0.0000 C   0  0  0  0  0  0  0  0  0  0  0  0
   -3.4641   -1.0000    0.0000 C   0  0  0  0  0  0  0  0  0  0  0  0
   -2.5981   -1.5000    0.0000 C   0  0  0  0  0  0  0  0  0  0  0  0
   -1.7321   -1.0000    0.0000 C   0  0  0  0  0  0  0  0  0  0  0  0
   -6.9282    0.0000    0.0000 N   0  0  0  0  0  0  0  0  0  0  0  0
   -1.7321    0.0000    0.0000 N   0  0  0  0  0  0  0  0  0  0  0  0
   -6.0622    0.5000    0.0000 C   0  0  0  0  0  0  0  0  0  0  0  0
   -7.7942    0.5000    0.0000 C   0  0  0  0  0  0  0  0  0  0  0  0
   -2.5981    0.5000    0.0000 C   0  0  0  0  0  0  0  0  0  0  0  0
   -0.8660    0.5000    0.0000 C   0  0  0  0  0  0  0  0  0  0  0  0
   -5.1962    0.0000    0.0000 O   0  0  0  0  0  0  0  0  0  0  0  0
   -7.7942    1.5000    0.0000 O   0  0  0  0  0  0  0  0  0  0  0  0
   -3.4641    0.0000    0.0000 O   0  0  0  0  0  0  0  0  0  0  0  0
   -0.8660    1.5000    0.0000 O   0  0  0  0  0  0  0  0  0  0  0  0
   -6.0622    1.5000    0.0000 O   0  0  0  0  0  0  0  0  0  0  0  0
   -8.6603    0.0000    0.0000 O   0  0  0  0  0  0  0  0  0  0  0  0
   -2.5981    1.5000    0.0000 O   0  0  0  0  0  0  0  0  0  0  0  0
    0.0000   -0.0000    0.0000 O   0  0  0  0  0  0  0  0  0  0  0  0
  1  2  1  0
  1  5  1  0
  2  3  1  0
  3  4  1  0
  4  8  1  0
  5  6  1  0
  6  7  1  0
  7  9  1  0
  8 10  1  0
  8 11  1  0
  9 12  1  0
  9 13  1  0
 10 14  2  0
 10 18  1  0
 11 15  2  0
 11 19  1  0
 12 16  2  0
 12 20  1  0
 13 17  2  0
 13 21  1  0
M  END
>  <logK_Eu_z=3.0_T=25_I=1.0>  (172) 
11.82

$$$$
***** O2DC6.mol2
     RDKit          2D

 12 11  0  0  0  0  0  0  0  0999 V2000
    3.4641   -0.0000    0.0000 C   0  0  0  0  0  0  0  0  0  0  0  0
    4.3301    0.5000    0.0000 C   0  0  0  0  0  0  0  0  0  0  0  0
    5.1962    0.0000    0.0000 O   0  0  0  0  0  0  0  0  0  0  0  0
    2.5981    0.5000    0.0000 O   0  0  0  0  0  0  0  0  0  0  0  0
    5.1962   -1.0000    0.0000 C   0  0  0  0  0  0  0  0  0  0  0  0
    4.3301   -1.5000    0.0000 C   0  0  0  0  0  0  0  0  0  0  0  0
    1.7321   -0.0000    0.0000 C   0  0  0  0  0  0  0  0  0  0  0  0
    0.8660    0.5000    0.0000 C   0  0  0  0  0  0  0  0  0  0  0  0
    3.4641   -1.0000    0.0000 O   0  0  0  0  0  0  0  0  0  0  0  0
    0.8660    1.5000    0.0000 O   0  0  0  0  0  0  0  0  0  0  0  0
    4.3301   -2.5000    0.0000 O   0  0  0  0  0  0  0  0  0  0  0  0
   -0.0000   -0.0000    0.0000 O   0  0  0  0  0  0  0  0  0  0  0  0
  1  2  1  0
  1  4  1  0
  2  3  1  0
  3  5  1  0
  4  7  1  0
  5  6  1  0
  6  9  2  0
  6 11  1  0
  7  8  1  0
  8 10  2  0
  8 12  1  0
M  END
>  <logK_Eu_z=3.0_T=25_I=1.0>  (173) 
5.18

$$$$
***** NTPH.MOL2
     RDKit          2D

 16 15  0  0  0  0  0  0  0  0999 V2000
   -1.5000   -1.8660    0.0000 N   0  0  0  0  0  0  0  0  0  0  0  0
   -1.0000   -1.0000    0.0000 C   0  0  0  0  0  0  0  0  0  0  0  0
   -2.5000   -1.8660    0.0000 C   0  0  0  0  0  0  0  0  0  0  0  0
   -1.0000   -2.7321    0.0000 C   0  0  0  0  0  0  0  0  0  0  0  0
    0.0000   -1.0000    0.0000 P   0  0  0  0  0  0  0  0  0  0  0  0
   -3.0000   -1.0000    0.0000 P   0  0  0  0  0  0  0  0  0  0  0  0
    0.0000   -2.7321    0.0000 P   0  0  0  0  0  0  0  0  0  0  0  0
    0.0000   -2.0000    0.0000 O   0  0  0  0  0  0  0  0  0  0  0  0
    1.0000   -1.0000    0.0000 O   0  0  0  0  0  0  0  0  0  0  0  0
   -2.1340   -0.5000    0.0000 O   0  0  0  0  0  0  0  0  0  0  0  0
   -3.5000   -0.1340    0.0000 O   0  0  0  0  0  0  0  0  0  0  0  0
    0.0000   -1.7321    0.0000 O   0  0  0  0  0  0  0  0  0  0  0  0
    1.0000   -2.7321    0.0000 O   0  0  0  0  0  0  0  0  0  0  0  0
    0.0000   -0.0000    0.0000 O   0  0  0  0  0  0  0  0  0  0  0  0
   -3.8660   -1.5000    0.0000 O   0  0  0  0  0  0  0  0  0  0  0  0
    0.0000   -3.7321    0.0000 O   0  0  0  0  0  0  0  0  0  0  0  0
  1  2  1  0
  1  3  1  0
  1  4  1  0
  2  5  1  0
  3  6  1  0
  4  7  1  0
  5  8  1  0
  5  9  1  0
  5 14  2  0
  6 10  1  0
  6 11  1  0
  6 15  2  0
  7 12  1  0
  7 13  1  0
  7 16  2  0
M  END
>  <logK_Eu_z=3.0_T=25_I=1.0>  (174) 
7.51

$$$$
***** N-PR-BTP.mol2
     RDKit          2D

 30 32  0  0  0  0  0  0  0  0999 V2000
   -3.3575   -2.9077    0.0000 C   0  0  0  0  0  0  0  0  0  0  0  0
   -4.1969   -2.4231    0.0000 C   0  0  0  0  0  0  0  0  0  0  0  0
   -2.5181   -2.4231    0.0000 C   0  0  0  0  0  0  0  0  0  0  0  0
   -4.1969   -1.4538    0.0000 C   0  0  0  0  0  0  0  0  0  0  0  0
   -2.5181   -1.4538    0.0000 C   0  0  0  0  0  0  0  0  0  0  0  0
   -3.3575   -0.9692    0.0000 N   0  0  0  0  0  0  0  0  0  0  0  0
   -5.0363   -0.9692    0.0000 C   0  0  0  0  0  0  0  0  0  0  0  0
   -5.8756   -1.4538    0.0000 N   0  0  0  0  0  0  0  0  0  0  0  0
   -5.0363   -0.0000    0.0000 N   0  0  0  0  0  0  0  0  0  0  0  0
   -6.7150   -0.9692    0.0000 N   0  0  0  0  0  0  0  0  0  0  0  0
   -6.7150   -0.0000    0.0000 C   0  0  0  0  0  0  0  0  0  0  0  0
   -5.8756    0.4846    0.0000 C   0  0  0  0  0  0  0  0  0  0  0  0
   -5.8756    2.4231    0.0000 C   0  0  0  0  0  0  0  0  0  0  0  0
   -5.0363    2.9077    0.0000 C   0  0  0  0  0  0  0  0  0  0  0  0
   -4.1969    2.4231    0.0000 C   0  0  0  0  0  0  0  0  0  0  0  0
   -7.5544    0.4846    0.0000 C   0  0  0  0  0  0  0  0  0  0  0  0
   -8.3938   -0.0000    0.0000 C   0  0  0  0  0  0  0  0  0  0  0  0
   -8.3938   -0.9692    0.0000 C   0  0  0  0  0  0  0  0  0  0  0  0
   -1.6788   -0.9692    0.0000 C   0  0  0  0  0  0  0  0  0  0  0  0
   -0.8394   -1.4538    0.0000 N   0  0  0  0  0  0  0  0  0  0  0  0
   -1.6788   -0.0000    0.0000 N   0  0  0  0  0  0  0  0  0  0  0  0
    0.0000   -0.9692    0.0000 N   0  0  0  0  0  0  0  0  0  0  0  0
   -0.0000   -0.0000    0.0000 C   0  0  0  0  0  0  0  0  0  0  0  0
   -0.8394    0.4846    0.0000 C   0  0  0  0  0  0  0  0  0  0  0  0
   -0.8394    2.4231    0.0000 C   0  0  0  0  0  0  0  0  0  0  0  0
   -1.6788    2.9077    0.0000 C   0  0  0  0  0  0  0  0  0  0  0  0
   -2.5181    2.4231    0.0000 C   0  0  0  0  0  0  0  0  0  0  0  0
    0.8394    0.4846    0.0000 C   0  0  0  0  0  0  0  0  0  0  0  0
    1.6788    0.0000    0.0000 C   0  0  0  0  0  0  0  0  0  0  0  0
    1.6788   -0.9692    0.0000 C   0  0  0  0  0  0  0  0  0  0  0  0
  1  2  2  0
  1  3  1  0
  2  4  1  0
  3  5  2  0
  4  6  2  0
  4  7  1  0
  5  6  1  0
  5 19  1  0
  7  8  2  0
  7  9  1  0
  8 10  1  0
  9 12  2  0
 10 11  2  0
 11 16  1  0
 12 11  1  0
 12 13  1  0
 13 14  1  0
 14 15  1  0
 16 17  1  0
 17 18  1  0
 19 20  2  0
 19 21  1  0
 20 22  1  0
 21 24  2  0
 22 23  2  0
 23 28  1  0
 24 23  1  0
 24 25  1  0
 25 26  1  0
 26 27  1  0
 28 29  1  0
 29 30  1  0
M  END
>  <logK_Eu_z=3.0_T=25_I=1.0>  (175) 
4.73

$$$$
***** NOTA.MOL2
     RDKit          2D

 22 22  0  0  0  0  0  0  0  0999 V2000
    0.9535   -2.9345    0.0000 C   0  0  0  0  0  0  0  0  0  0  0  0
    0.0000   -2.9345    0.0000 C   0  0  0  0  0  0  0  0  0  0  0  0
   -1.0660   -1.4673    0.0000 C   0  0  0  0  0  0  0  0  0  0  0  0
   -0.7714   -0.5604    0.0000 C   0  0  0  0  0  0  0  0  0  0  0  0
    0.9535    0.0000    0.0000 C   0  0  0  0  0  0  0  0  0  0  0  0
    1.7249   -0.5604    0.0000 C   0  0  0  0  0  0  0  0  0  0  0  0
    2.0195   -1.4673    0.0000 N   0  0  0  0  0  0  0  0  0  0  0  0
    1.7249   -2.3741    0.0000 N   0  0  0  0  0  0  0  0  0  0  0  0
   -0.7714   -2.3741    0.0000 N   0  0  0  0  0  0  0  0  0  0  0  0
    0.0000   -0.0000    0.0000 N   0  0  0  0  0  0  0  0  0  0  0  0
    2.4963   -2.9345    0.0000 C   0  0  0  0  0  0  0  0  0  0  0  0
    2.3966   -3.8828    0.0000 C   0  0  0  0  0  0  0  0  0  0  0  0
   -2.3142   -3.4950    0.0000 C   0  0  0  0  0  0  0  0  0  0  0  0
   -3.1852   -3.1072    0.0000 C   0  0  0  0  0  0  0  0  0  0  0  0
   -0.5893    1.8136    0.0000 C   0  0  0  0  0  0  0  0  0  0  0  0
    0.0487    2.5222    0.0000 C   0  0  0  0  0  0  0  0  0  0  0  0
    1.5255   -4.2706    0.0000 O   0  0  0  0  0  0  0  0  0  0  0  0
   -3.2849   -2.1589    0.0000 O   0  0  0  0  0  0  0  0  0  0  0  0
    0.9814    2.3240    0.0000 O   0  0  0  0  0  0  0  0  0  0  0  0
   -3.9566   -3.6676    0.0000 O   0  0  0  0  0  0  0  0  0  0  0  0
    3.1680   -4.4432    0.0000 O   0  0  0  0  0  0  0  0  0  0  0  0
   -0.2459    3.4290    0.0000 O   0  0  0  0  0  0  0  0  0  0  0  0
  1  2  1  0
  1  8  1  0
  2  9  1  0
  3  4  1  0
  3  9  1  0
  4 10  1  0
  5  6  1  0
  5 10  1  0
  6  7  1  0
  7  8  1  0
  8 11  1  0
  9 13  1  0
 10 15  1  0
 11 12  1  0
 12 17  2  0
 12 21  1  0
 13 14  1  0
 14 18  2  0
 14 20  1  0
 15 16  1  0
 16 19  2  0
 16 22  1  0
M  END
>  <logK_Eu_z=3.0_T=25_I=1.0>  (176) 
13.9

$$$$
***** NO3.MOL2
     RDKit          2D

  4  3  0  0  0  0  0  0  0  0999 V2000
   -0.0000    1.0000    0.0000 N   0  0  0  0  0  0  0  0  0  0  0  0
    0.8660    1.5000    0.0000 O   0  0  0  0  0  0  0  0  0  0  0  0
   -0.8660    1.5000    0.0000 O   0  0  0  0  0  0  0  0  0  0  0  0
   -0.0000   -0.0000    0.0000 O   0  0  0  0  0  0  0  0  0  0  0  0
  1  2  1  0
  1  3  1  0
  1  4  2  0
M  CHG  2   1   1   3  -1
M  END
>  <logK_Eu_z=3.0_T=25_I=1.0>  (177) 
1.23

$$$$
***** NNS.MOL2
     RDKit          2D

 17 18  0  0  0  0  0  0  0  0999 V2000
   -1.5000   -0.1340    0.0000 C   0  0  0  0  0  0  0  0  0  0  0  0
   -1.0000   -1.0000    0.0000 C   0  0  0  0  0  0  0  0  0  0  0  0
   -1.5000   -1.8660    0.0000 C   0  0  0  0  0  0  0  0  0  0  0  0
   -2.5000   -1.8660    0.0000 C   0  0  0  0  0  0  0  0  0  0  0  0
   -2.5000   -0.1340    0.0000 C   0  0  0  0  0  0  0  0  0  0  0  0
   -3.0000   -1.0000    0.0000 C   0  0  0  0  0  0  0  0  0  0  0  0
   -3.0000    0.7321    0.0000 C   0  0  0  0  0  0  0  0  0  0  0  0
   -4.0000    0.7321    0.0000 C   0  0  0  0  0  0  0  0  0  0  0  0
   -4.5000   -0.1340    0.0000 C   0  0  0  0  0  0  0  0  0  0  0  0
   -4.0000   -1.0000    0.0000 C   0  0  0  0  0  0  0  0  0  0  0  0
   -4.5000    1.5981    0.0000 O   0  0  0  0  0  0  0  0  0  0  0  0
   -2.5000    1.5981    0.0000 N   0  0  0  0  0  0  0  0  0  0  0  0
   -1.5000    1.5981    0.0000 O   0  0  0  0  0  0  0  0  0  0  0  0
    0.0000   -1.0000    0.0000 S   0  0  0  0  0  0  0  0  0  0  0  0
    0.0000   -2.0000    0.0000 O   0  0  0  0  0  0  0  0  0  0  0  0
    1.0000   -1.0000    0.0000 O   0  0  0  0  0  0  0  0  0  0  0  0
    0.0000   -0.0000    0.0000 O   0  0  0  0  0  0  0  0  0  0  0  0
  1  2  2  0
  2  3  1  0
  2 14  1  0
  3  4  2  0
  4  6  1  0
  5  6  2  0
  5  1  1  0
  6 10  1  0
  7  8  2  0
  7  5  1  0
  7 12  1  0
  8 11  1  0
  9 10  2  0
  9  8  1  0
 12 13  2  0
 14 15  1  0
 14 16  2  0
 14 17  2  0
M  END
>  <logK_Eu_z=3.0_T=25_I=1.0>  (178) 
4.56

$$$$
***** MS-325.MOL2
     RDKit          2D

 51 53  0  0  1  0  0  0  0  0999 V2000
    1.4082   -1.7518    0.0000 C   0  0  0  0  0  0  0  0  0  0  0  0
    2.2212   -1.2824    0.0000 C   0  0  0  0  0  0  0  0  0  0  0  0
    3.0342   -1.7518    0.0000 C   0  0  0  0  0  0  0  0  0  0  0  0
    3.0342   -2.6906    0.0000 C   0  0  0  0  0  0  0  0  0  0  0  0
    2.2212   -3.1599    0.0000 C   0  0  0  0  0  0  0  0  0  0  0  0
    1.4082   -2.6906    0.0000 C   0  0  0  0  0  0  0  0  0  0  0  0
    4.9117   -5.9426    0.0000 C   0  0  0  0  0  0  0  0  0  0  0  0
    4.9117   -2.6906    0.0000 C   0  0  0  0  0  0  0  0  0  0  0  0
    5.3811   -1.8776    0.0000 C   0  0  0  0  0  0  0  0  0  0  0  0
    5.8505   -5.9426    0.0000 C   0  0  0  0  0  0  0  0  0  0  0  0
    5.3811   -3.5036    0.0000 C   0  0  0  0  0  0  0  0  0  0  0  0
    6.3199   -1.8776    0.0000 C   0  0  0  0  0  0  0  0  0  0  0  0
    4.4423   -6.7556    0.0000 C   0  0  0  0  0  0  0  0  0  0  0  0
    6.3199   -6.7556    0.0000 C   0  0  0  0  0  0  0  0  0  0  0  0
    6.7893   -2.6906    0.0000 C   0  0  0  0  0  0  0  0  0  0  0  0
    6.3199   -3.5036    0.0000 C   0  0  0  0  0  0  0  0  0  0  0  0
    4.9117   -7.5686    0.0000 C   0  0  0  0  0  0  0  0  0  0  0  0
    5.8505   -7.5686    0.0000 C   0  0  0  0  0  0  0  0  0  0  0  0
    0.9388   -0.9388    0.0000 O   0  0  0  0  0  0  0  0  0  0  0  0
   -0.0000   -0.9388    0.0000 P   0  0  0  0  0  0  0  0  0  0  0  0
   -0.0000   -1.8776    0.0000 O   0  0  0  0  0  0  0  0  0  0  0  0
   -1.8776   -0.9388    0.0000 O   0  0  0  0  0  0  0  0  0  0  0  0
    0.0000    0.0000    0.0000 O   0  0  0  0  0  0  0  0  0  0  0  0
   -2.3469   -0.1258    0.0000 C   0  0  0  0  0  0  0  0  0  0  0  0
   -1.8776    0.6872    0.0000 C   0  0  0  0  0  0  0  0  0  0  0  0
   -2.6906    1.1566    0.0000 C   0  0  0  0  0  0  0  0  0  0  0  0
   -1.4082    1.5002    0.0000 N   0  0  0  0  0  0  0  0  0  0  0  0
   -3.5036    0.6872    0.0000 N   0  0  0  0  0  0  0  0  0  0  0  0
   -4.3166    1.1566    0.0000 C   0  0  0  0  0  0  0  0  0  0  0  0
   -5.1296    0.6872    0.0000 C   0  0  0  0  0  0  0  0  0  0  0  0
   -3.5036   -1.1903    0.0000 C   0  0  0  0  0  0  0  0  0  0  0  0
   -4.3166   -1.6597    0.0000 C   0  0  0  0  0  0  0  0  0  0  0  0
   -0.4694    1.5002    0.0000 C   0  0  0  0  0  0  0  0  0  0  0  0
    0.0000    0.6872    0.0000 C   0  0  0  0  0  0  0  0  0  0  0  0
   -1.8776    2.3132    0.0000 C   0  0  0  0  0  0  0  0  0  0  0  0
   -1.4082    3.1262    0.0000 C   0  0  0  0  0  0  0  0  0  0  0  0
   -5.9426    1.1566    0.0000 N   0  0  0  0  0  0  0  0  0  0  0  0
   -5.9426    2.0954    0.0000 C   0  0  0  0  0  0  0  0  0  0  0  0
   -5.1296    2.5648    0.0000 C   0  0  0  0  0  0  0  0  0  0  0  0
   -6.7556    0.6872    0.0000 C   0  0  0  0  0  0  0  0  0  0  0  0
   -7.5686    1.1566    0.0000 C   0  0  0  0  0  0  0  0  0  0  0  0
   -4.3166    2.0954    0.0000 O   0  0  0  0  0  0  0  0  0  0  0  0
   -7.5686    2.0954    0.0000 O   0  0  0  0  0  0  0  0  0  0  0  0
   -5.1296   -1.1903    0.0000 O   0  0  0  0  0  0  0  0  0  0  0  0
   -0.4694    3.1262    0.0000 O   0  0  0  0  0  0  0  0  0  0  0  0
   -0.4694   -0.1258    0.0000 O   0  0  0  0  0  0  0  0  0  0  0  0
   -5.1296    3.5036    0.0000 O   0  0  0  0  0  0  0  0  0  0  0  0
   -8.3816    0.6872    0.0000 O   0  0  0  0  0  0  0  0  0  0  0  0
   -4.3166   -2.5985    0.0000 O   0  0  0  0  0  0  0  0  0  0  0  0
   -1.8776    3.9392    0.0000 O   0  0  0  0  0  0  0  0  0  0  0  0
    0.9388    0.6872    0.0000 O   0  0  0  0  0  0  0  0  0  0  0  0
  1  2  1  0
  1 19  1  0
  2  3  1  0
  3  4  1  0
  4  5  1  0
  4  7  1  0
  4  8  1  0
  5  6  1  0
  6  1  1  0
  7 10  2  0
  7 13  1  0
  8  9  2  0
  8 11  1  0
  9 12  1  0
 10 14  1  0
 11 16  2  0
 12 15  2  0
 13 17  2  0
 14 18  2  0
 15 16  1  0
 18 17  1  0
 19 20  1  0
 20 21  1  0
 20 22  1  0
 20 23  2  0
 22 24  1  0
 25 24  1  6
 25 26  1  0
 25 27  1  0
 26 28  1  0
 27 33  1  0
 27 35  1  0
 28 29  1  0
 28 31  1  0
 29 30  1  0
 30 37  1  0
 31 32  1  0
 32 44  2  0
 32 49  1  0
 33 34  1  0
 34 46  2  0
 34 51  1  0
 35 36  1  0
 36 45  2  0
 36 50  1  0
 37 38  1  0
 37 40  1  0
 38 39  1  0
 39 42  2  0
 39 47  1  0
 40 41  1  0
 41 43  2  0
 41 48  1  0
M  END
>  <logK_Eu_z=3.0_T=25_I=1.0>  (179) 
21.65

$$$$
***** ME-TODGA.MOL2
     RDKit          2D

 42 41  0  0  1  0  0  0  0  0999 V2000
   -3.4110    0.8440    0.0000 C   0  0  0  0  0  0  0  0  0  0  0  0
   -2.9237   -0.0000    0.0000 C   0  0  0  0  0  0  0  0  0  0  0  0
   -4.6117   -1.9492    0.0000 C   0  0  0  0  0  0  0  0  0  0  0  0
   -5.4558   -2.4364    0.0000 C   0  0  0  0  0  0  0  0  0  0  0  0
   -4.6117   -0.9746    0.0000 O   0  0  0  0  0  0  0  0  0  0  0  0
   -6.2998   -1.9492    0.0000 N   0  0  0  0  0  0  0  0  0  0  0  0
   -2.4364    2.5320    0.0000 N   0  0  0  0  0  0  0  0  0  0  0  0
   -2.4364   -0.8440    0.0000 C   0  0  0  0  0  0  0  0  0  0  0  0
   -5.4558   -3.4110    0.0000 O   0  0  0  0  0  0  0  0  0  0  0  0
   -4.3856    0.8440    0.0000 O   0  0  0  0  0  0  0  0  0  0  0  0
   -7.1438   -2.4364    0.0000 C   0  0  0  0  0  0  0  0  0  0  0  0
   -7.1438   -3.4110    0.0000 C   0  0  0  0  0  0  0  0  0  0  0  0
   -6.2998   -3.8983    0.0000 C   0  0  0  0  0  0  0  0  0  0  0  0
   -6.2998   -4.8729    0.0000 C   0  0  0  0  0  0  0  0  0  0  0  0
   -5.4558   -5.3602    0.0000 C   0  0  0  0  0  0  0  0  0  0  0  0
   -5.4558   -6.3347    0.0000 C   0  0  0  0  0  0  0  0  0  0  0  0
   -4.6117   -6.8220    0.0000 C   0  0  0  0  0  0  0  0  0  0  0  0
   -3.7677   -6.3347    0.0000 C   0  0  0  0  0  0  0  0  0  0  0  0
   -2.9237    3.3760    0.0000 C   0  0  0  0  0  0  0  0  0  0  0  0
   -3.8983    3.3760    0.0000 C   0  0  0  0  0  0  0  0  0  0  0  0
   -4.3856    4.2200    0.0000 C   0  0  0  0  0  0  0  0  0  0  0  0
   -5.3602    4.2200    0.0000 C   0  0  0  0  0  0  0  0  0  0  0  0
   -5.8475    5.0640    0.0000 C   0  0  0  0  0  0  0  0  0  0  0  0
   -6.8220    5.0640    0.0000 C   0  0  0  0  0  0  0  0  0  0  0  0
   -7.3093    5.9081    0.0000 C   0  0  0  0  0  0  0  0  0  0  0  0
   -6.8220    6.7521    0.0000 C   0  0  0  0  0  0  0  0  0  0  0  0
   -6.2998   -0.9746    0.0000 C   0  0  0  0  0  0  0  0  0  0  0  0
   -7.9878   -0.0000    0.0000 C   0  0  0  0  0  0  0  0  0  0  0  0
   -8.8318   -0.4873    0.0000 C   0  0  0  0  0  0  0  0  0  0  0  0
   -9.6758   -0.0000    0.0000 C   0  0  0  0  0  0  0  0  0  0  0  0
  -10.5198   -0.4873    0.0000 C   0  0  0  0  0  0  0  0  0  0  0  0
  -11.3638   -0.0000    0.0000 C   0  0  0  0  0  0  0  0  0  0  0  0
  -11.3638    0.9746    0.0000 C   0  0  0  0  0  0  0  0  0  0  0  0
  -10.5198    1.4619    0.0000 C   0  0  0  0  0  0  0  0  0  0  0  0
   -1.4619    2.5320    0.0000 C   0  0  0  0  0  0  0  0  0  0  0  0
   -0.9746    1.6880    0.0000 C   0  0  0  0  0  0  0  0  0  0  0  0
   -0.0000    1.6880    0.0000 C   0  0  0  0  0  0  0  0  0  0  0  0
    0.4873    0.8440    0.0000 C   0  0  0  0  0  0  0  0  0  0  0  0
    1.4619    0.8440    0.0000 C   0  0  0  0  0  0  0  0  0  0  0  0
    1.9492    0.0000    0.0000 C   0  0  0  0  0  0  0  0  0  0  0  0
    1.4619   -0.8440    0.0000 C   0  0  0  0  0  0  0  0  0  0  0  0
    0.4873   -0.8440    0.0000 C   0  0  0  0  0  0  0  0  0  0  0  0
  1  2  1  0
  1  7  1  0
  1 10  2  0
  2  5  1  0
  2  8  1  6
  3  4  1  0
  3  5  1  0
  4  6  1  0
  4  9  2  0
  6 11  1  0
  6 27  1  0
  7 19  1  0
  7 35  1  0
 11 12  1  0
 12 13  1  0
 13 14  1  0
 14 15  1  0
 15 16  1  0
 16 17  1  0
 17 18  1  0
 19 20  1  0
 20 21  1  0
 21 22  1  0
 22 23  1  0
 23 24  1  0
 24 25  1  0
 25 26  1  0
 27 28  1  0
 28 29  1  0
 29 30  1  0
 30 31  1  0
 31 32  1  0
 32 33  1  0
 33 34  1  0
 35 36  1  0
 36 37  1  0
 37 38  1  0
 38 39  1  0
 39 40  1  0
 40 41  1  0
 41 42  1  0
M  END
>  <logK_Eu_z=3.0_T=25_I=1.0>  (180) 
6.23

$$$$
***** ME2-TODGA.MOL2
     RDKit          2D

 43 42  0  0  1  0  0  0  0  0999 V2000
    2.9748    1.7175    0.0000 C   0  0  0  0  0  0  0  0  0  0  0  0
    3.4706    2.5762    0.0000 C   0  0  0  0  0  0  0  0  0  0  0  0
    1.7531    2.5762    0.0000 C   0  0  0  0  0  0  0  0  0  0  0  0
    0.7615    4.2937    0.0000 C   0  0  0  0  0  0  0  0  0  0  0  0
    2.6118    3.0720    0.0000 O   0  0  0  0  0  0  0  0  0  0  0  0
   -0.2301    4.2937    0.0000 O   0  0  0  0  0  0  0  0  0  0  0  0
    1.9832    1.7175    0.0000 O   0  0  0  0  0  0  0  0  0  0  0  0
    3.4706    0.8587    0.0000 N   0  0  0  0  0  0  0  0  0  0  0  0
    1.2573    5.1525    0.0000 N   0  0  0  0  0  0  0  0  0  0  0  0
    3.9664    3.4350    0.0000 C   0  0  0  0  0  0  0  0  0  0  0  0
    0.8943    2.0804    0.0000 C   0  0  0  0  0  0  0  0  0  0  0  0
    0.7615    6.0112    0.0000 C   0  0  0  0  0  0  0  0  0  0  0  0
   -0.2301    6.0112    0.0000 C   0  0  0  0  0  0  0  0  0  0  0  0
   -0.7259    6.8700    0.0000 C   0  0  0  0  0  0  0  0  0  0  0  0
   -1.7175    6.8700    0.0000 C   0  0  0  0  0  0  0  0  0  0  0  0
   -2.2133    7.7287    0.0000 C   0  0  0  0  0  0  0  0  0  0  0  0
   -3.2049    7.7287    0.0000 C   0  0  0  0  0  0  0  0  0  0  0  0
   -3.7007    6.8700    0.0000 C   0  0  0  0  0  0  0  0  0  0  0  0
   -3.2049    6.0112    0.0000 C   0  0  0  0  0  0  0  0  0  0  0  0
    2.2489    5.1525    0.0000 C   0  0  0  0  0  0  0  0  0  0  0  0
    2.7447    6.0112    0.0000 C   0  0  0  0  0  0  0  0  0  0  0  0
    3.7363    6.0112    0.0000 C   0  0  0  0  0  0  0  0  0  0  0  0
    4.2321    6.8700    0.0000 C   0  0  0  0  0  0  0  0  0  0  0  0
    5.2237    6.8700    0.0000 C   0  0  0  0  0  0  0  0  0  0  0  0
    5.7195    7.7287    0.0000 C   0  0  0  0  0  0  0  0  0  0  0  0
    5.2237    8.5875    0.0000 C   0  0  0  0  0  0  0  0  0  0  0  0
    4.2321    8.5875    0.0000 C   0  0  0  0  0  0  0  0  0  0  0  0
    4.4622    0.8587    0.0000 C   0  0  0  0  0  0  0  0  0  0  0  0
    4.9580    1.7175    0.0000 C   0  0  0  0  0  0  0  0  0  0  0  0
    5.9496    1.7175    0.0000 C   0  0  0  0  0  0  0  0  0  0  0  0
    6.4454    2.5762    0.0000 C   0  0  0  0  0  0  0  0  0  0  0  0
    7.4370    2.5762    0.0000 C   0  0  0  0  0  0  0  0  0  0  0  0
    7.9328    3.4350    0.0000 C   0  0  0  0  0  0  0  0  0  0  0  0
    8.9244    3.4350    0.0000 C   0  0  0  0  0  0  0  0  0  0  0  0
    9.4202    2.5762    0.0000 C   0  0  0  0  0  0  0  0  0  0  0  0
    2.9748   -0.0000    0.0000 C   0  0  0  0  0  0  0  0  0  0  0  0
    1.9832   -0.0000    0.0000 C   0  0  0  0  0  0  0  0  0  0  0  0
    1.4874   -0.8587    0.0000 C   0  0  0  0  0  0  0  0  0  0  0  0
    0.4958   -0.8587    0.0000 C   0  0  0  0  0  0  0  0  0  0  0  0
   -0.0000   -1.7175    0.0000 C   0  0  0  0  0  0  0  0  0  0  0  0
   -0.9916   -1.7175    0.0000 C   0  0  0  0  0  0  0  0  0  0  0  0
   -1.4874   -0.8587    0.0000 C   0  0  0  0  0  0  0  0  0  0  0  0
   -0.9916    0.0000    0.0000 C   0  0  0  0  0  0  0  0  0  0  0  0
  1  2  1  0
  1  7  2  0
  1  8  1  0
  2  5  1  0
  2 10  1  1
  3  4  1  0
  3  5  1  0
  3 11  1  6
  4  6  2  0
  4  9  1  0
  8 28  1  0
  8 36  1  0
  9 12  1  0
  9 20  1  0
 12 13  1  0
 13 14  1  0
 14 15  1  0
 15 16  1  0
 16 17  1  0
 17 18  1  0
 18 19  1  0
 20 21  1  0
 21 22  1  0
 22 23  1  0
 23 24  1  0
 24 25  1  0
 25 26  1  0
 26 27  1  0
 28 29  1  0
 29 30  1  0
 30 31  1  0
 31 32  1  0
 32 33  1  0
 33 34  1  0
 34 35  1  0
 36 37  1  0
 37 38  1  0
 38 39  1  0
 39 40  1  0
 40 41  1  0
 41 42  1  0
 42 43  1  0
M  END
>  <logK_Eu_z=3.0_T=25_I=1.0>  (181) 
5.84

$$$$
***** LACTIC.MOL2
     RDKit          2D

  6  5  0  0  1  0  0  0  0  0999 V2000
   -1.7321    0.0000    0.0000 C   0  0  0  0  0  0  0  0  0  0  0  0
   -2.5981    0.5000    0.0000 C   0  0  0  0  0  0  0  0  0  0  0  0
   -2.2321   -0.8660    0.0000 C   0  0  0  0  0  0  0  0  0  0  0  0
   -2.5981    1.5000    0.0000 O   0  0  0  0  0  0  0  0  0  0  0  0
   -3.4641    0.0000    0.0000 O   0  0  0  0  0  0  0  0  0  0  0  0
   -0.8660   -0.5000    0.0000 O   0  0  0  0  0  0  0  0  0  0  0  0
  1  2  1  0
  1  3  1  6
  1  6  1  0
  2  4  2  0
  2  5  1  0
M  END
>  <logK_Eu_z=3.0_T=25_I=1.0>  (182) 
3.34

$$$$
***** ISOBUT.MOL2
     RDKit          2D

  6  5  0  0  0  0  0  0  0  0999 V2000
    3.0000    0.0000    0.0000 C   0  0  0  0  0  0  0  0  0  0  0  0
    2.5000   -0.8660    0.0000 C   0  0  0  0  0  0  0  0  0  0  0  0
    1.5000   -0.8660    0.0000 C   0  0  0  0  0  0  0  0  0  0  0  0
    1.0000    0.0000    0.0000 C   0  0  0  0  0  0  0  0  0  0  0  0
    1.5000    0.8660    0.0000 O   0  0  0  0  0  0  0  0  0  0  0  0
    0.0000    0.0000    0.0000 O   0  0  0  0  0  0  0  0  0  0  0  0
  1  2  1  0
  2  3  1  0
  3  4  1  0
  4  5  2  0
  4  6  1  0
M  END
>  <logK_Eu_z=3.0_T=25_I=1.0>  (183) 
2.32

$$$$
***** HNTA.MOL2
     RDKit          2D

 19 18  0  0  1  0  0  0  0  0999 V2000
   -1.6852   -0.0000    0.0000 C   0  0  0  0  0  0  0  0  0  0  0  0
   -2.1717   -0.8426    0.0000 C   0  0  0  0  0  0  0  0  0  0  0  0
   -0.8426   -0.4865    0.0000 C   0  0  0  0  0  0  0  0  0  0  0  0
   -3.1447   -0.8426    0.0000 C   0  0  0  0  0  0  0  0  0  0  0  0
   -3.6312   -1.6852    0.0000 C   0  0  0  0  0  0  0  0  0  0  0  0
   -4.6042   -1.6852    0.0000 C   0  0  0  0  0  0  0  0  0  0  0  0
   -5.0906   -0.8426    0.0000 C   0  0  0  0  0  0  0  0  0  0  0  0
   -4.6042    0.0000    0.0000 C   0  0  0  0  0  0  0  0  0  0  0  0
   -0.7123    1.6852    0.0000 N   0  0  0  0  0  0  0  0  0  0  0  0
   -1.1988    2.5279    0.0000 C   0  0  0  0  0  0  0  0  0  0  0  0
   -2.1717    2.5279    0.0000 C   0  0  0  0  0  0  0  0  0  0  0  0
    0.2607    1.6852    0.0000 C   0  0  0  0  0  0  0  0  0  0  0  0
    0.7472    2.5279    0.0000 C   0  0  0  0  0  0  0  0  0  0  0  0
   -2.6582    1.6852    0.0000 O   0  0  0  0  0  0  0  0  0  0  0  0
    0.2607    3.3705    0.0000 O   0  0  0  0  0  0  0  0  0  0  0  0
   -0.8426   -1.4595    0.0000 O   0  0  0  0  0  0  0  0  0  0  0  0
   -2.6582    3.3705    0.0000 O   0  0  0  0  0  0  0  0  0  0  0  0
    1.7202    2.5279    0.0000 O   0  0  0  0  0  0  0  0  0  0  0  0
    0.0000    0.0000    0.0000 O   0  0  0  0  0  0  0  0  0  0  0  0
  1  2  1  1
  1  3  1  0
  1  9  1  0
  2  4  1  0
  3 16  2  0
  3 19  1  0
  4  5  1  0
  5  6  1  0
  6  7  1  0
  7  8  1  0
  9 10  1  0
  9 12  1  0
 10 11  1  0
 11 14  2  0
 11 17  1  0
 12 13  1  0
 13 15  2  0
 13 18  1  0
M  END
>  <logK_Eu_z=3.0_T=25_I=1.0>  (184) 
11.06

$$$$
***** HN4BIPY.MOL2
     RDKit          2D

 17 19  0  0  0  0  0  0  0  0999 V2000
    3.3147   -2.3364    0.0000 C   0  0  0  0  0  0  0  0  0  0  0  0
    2.4487   -1.8364    0.0000 C   0  0  0  0  0  0  0  0  0  0  0  0
    4.1808   -1.8364    0.0000 C   0  0  0  0  0  0  0  0  0  0  0  0
    4.1808   -0.8364    0.0000 C   0  0  0  0  0  0  0  0  0  0  0  0
    2.4487   -0.8364    0.0000 C   0  0  0  0  0  0  0  0  0  0  0  0
    3.3147   -0.3364    0.0000 N   0  0  0  0  0  0  0  0  0  0  0  0
    5.0468   -0.3364    0.0000 C   0  0  0  0  0  0  0  0  0  0  0  0
    1.5827   -0.3364    0.0000 C   0  0  0  0  0  0  0  0  0  0  0  0
    5.0468    0.6636    0.0000 C   0  0  0  0  0  0  0  0  0  0  0  0
    5.9128    1.1636    0.0000 C   0  0  0  0  0  0  0  0  0  0  0  0
    6.7788    0.6636    0.0000 C   0  0  0  0  0  0  0  0  0  0  0  0
    6.7788   -0.3364    0.0000 C   0  0  0  0  0  0  0  0  0  0  0  0
    5.9128   -0.8364    0.0000 N   0  0  0  0  0  0  0  0  0  0  0  0
    0.6691   -0.7431    0.0000 N   0  0  0  0  0  0  0  0  0  0  0  0
    1.4781    0.6581    0.0000 N   0  0  0  0  0  0  0  0  0  0  0  0
    0.5000    0.8660    0.0000 N   0  0  0  0  0  0  0  0  0  0  0  0
    0.0000    0.0000    0.0000 N   0  0  0  0  0  0  0  0  0  0  0  0
  1  2  2  0
  1  3  1  0
  2  5  1  0
  3  4  2  0
  4  6  1  0
  4  7  1  0
  5  6  2  0
  5  8  1  0
  7  9  2  0
  7 13  1  0
  8 14  1  0
  8 15  2  0
  9 10  1  0
 10 11  2  0
 11 12  1  0
 12 13  2  0
 14 17  1  0
 15 16  1  0
 16 17  2  0
M  CHG  1  13   1
M  END
>  <logK_Eu_z=3.0_T=25_I=1.0>  (185) 
4.0

$$$$
***** HMDTPA.MOL2
     RDKit          2D

 29 28  0  0  1  0  0  0  0  0999 V2000
   -2.9388    1.6967    0.0000 C   0  0  0  0  0  0  0  0  0  0  0  0
   -3.9184    1.6967    0.0000 C   0  0  0  0  0  0  0  0  0  0  0  0
   -3.9184    3.6559    0.0000 C   0  0  0  0  0  0  0  0  0  0  0  0
   -3.0700    4.1457    0.0000 O   0  0  0  0  0  0  0  0  0  0  0  0
   -4.8980    1.6967    0.0000 N   0  0  0  0  0  0  0  0  0  0  0  0
   -2.4490    0.8484    0.0000 N   0  0  0  0  0  0  0  0  0  0  0  0
   -5.3878    2.5451    0.0000 C   0  0  0  0  0  0  0  0  0  0  0  0
   -6.3673    2.5451    0.0000 C   0  0  0  0  0  0  0  0  0  0  0  0
   -5.3878    0.8484    0.0000 C   0  0  0  0  0  0  0  0  0  0  0  0
   -6.3673    0.8484    0.0000 C   0  0  0  0  0  0  0  0  0  0  0  0
   -2.9388    0.0000    0.0000 C   0  0  0  0  0  0  0  0  0  0  0  0
   -3.9184    0.0000    0.0000 C   0  0  0  0  0  0  0  0  0  0  0  0
   -1.4694    0.8484    0.0000 C   0  0  0  0  0  0  0  0  0  0  0  0
   -0.9796    0.0000    0.0000 C   0  0  0  0  0  0  0  0  0  0  0  0
   -6.8571   -0.0000    0.0000 N   0  0  0  0  0  0  0  0  0  0  0  0
   -6.3673   -0.8484    0.0000 C   0  0  0  0  0  0  0  0  0  0  0  0
   -5.3878   -0.8484    0.0000 C   0  0  0  0  0  0  0  0  0  0  0  0
   -7.8367    0.0000    0.0000 C   0  0  0  0  0  0  0  0  0  0  0  0
   -8.3265   -0.8484    0.0000 C   0  0  0  0  0  0  0  0  0  0  0  0
   -4.8980   -0.0000    0.0000 O   0  0  0  0  0  0  0  0  0  0  0  0
   -7.8367   -1.6967    0.0000 O   0  0  0  0  0  0  0  0  0  0  0  0
   -6.8571    1.6967    0.0000 O   0  0  0  0  0  0  0  0  0  0  0  0
   -4.4082    0.8484    0.0000 O   0  0  0  0  0  0  0  0  0  0  0  0
   -1.4694   -0.8484    0.0000 O   0  0  0  0  0  0  0  0  0  0  0  0
   -4.8980   -1.6967    0.0000 O   0  0  0  0  0  0  0  0  0  0  0  0
   -9.3061   -0.8484    0.0000 O   0  0  0  0  0  0  0  0  0  0  0  0
   -6.8571    3.3934    0.0000 O   0  0  0  0  0  0  0  0  0  0  0  0
   -4.4082   -0.8484    0.0000 O   0  0  0  0  0  0  0  0  0  0  0  0
    0.0000   -0.0000    0.0000 O   0  0  0  0  0  0  0  0  0  0  0  0
  2  1  1  1
  1  6  1  0
  2  3  1  0
  2  5  1  0
  3  4  1  0
  5  7  1  0
  5  9  1  0
  6 11  1  0
  6 13  1  0
  7  8  1  0
  8 22  2  0
  8 27  1  0
  9 10  1  0
 10 15  1  0
 11 12  1  0
 12 23  2  0
 12 28  1  0
 13 14  1  0
 14 24  2  0
 14 29  1  0
 15 16  1  0
 15 18  1  0
 16 17  1  0
 17 20  2  0
 17 25  1  0
 18 19  1  0
 19 21  2  0
 19 26  1  0
M  END
>  <logK_Eu_z=3.0_T=25_I=1.0>  (186) 
22.58

$$$$
***** HIDA.MOL2
     RDKit          2D

 15 14  0  0  0  0  0  0  0  0999 V2000
    3.0000    3.4641    0.0000 C   0  0  0  0  0  0  0  0  0  0  0  0
    3.5000    2.5981    0.0000 C   0  0  0  0  0  0  0  0  0  0  0  0
    1.5000    4.3301    0.0000 C   0  0  0  0  0  0  0  0  0  0  0  0
    0.5000    4.3301    0.0000 C   0  0  0  0  0  0  0  0  0  0  0  0
    4.5000    2.5981    0.0000 O   0  0  0  0  0  0  0  0  0  0  0  0
    0.0000    3.4641    0.0000 O   0  0  0  0  0  0  0  0  0  0  0  0
    3.0000    1.7321    0.0000 O   0  0  0  0  0  0  0  0  0  0  0  0
    0.0000    5.1962    0.0000 O   0  0  0  0  0  0  0  0  0  0  0  0
    2.0000    3.4641    0.0000 N   0  0  0  0  0  0  0  0  0  0  0  0
    1.5000    2.5981    0.0000 C   0  0  0  0  0  0  0  0  0  0  0  0
    0.5000    2.5981    0.0000 C   0  0  0  0  0  0  0  0  0  0  0  0
    0.0000    1.7321    0.0000 C   0  0  0  0  0  0  0  0  0  0  0  0
   -1.0000    1.7321    0.0000 C   0  0  0  0  0  0  0  0  0  0  0  0
   -1.5000    0.8660    0.0000 C   0  0  0  0  0  0  0  0  0  0  0  0
   -1.0000    0.0000    0.0000 C   0  0  0  0  0  0  0  0  0  0  0  0
  1  2  1  0
  1  9  1  0
  2  5  2  0
  2  7  1  0
  3  4  1  0
  3  9  1  0
  4  6  2  0
  4  8  1  0
  9 10  1  0
 10 11  1  0
 11 12  1  0
 12 13  1  0
 13 14  1  0
 14 15  1  0
M  END
>  <logK_Eu_z=3.0_T=25_I=1.0>  (187) 
6.8

$$$$
***** HEDTTA.mol2
     RDKit          2D

 26 25  0  0  0  0  0  0  0  0999 V2000
    3.4641    0.0000    0.0000 N   0  0  0  0  0  0  0  0  0  0  0  0
    4.3301    0.5000    0.0000 C   0  0  0  0  0  0  0  0  0  0  0  0
    2.5981    0.5000    0.0000 C   0  0  0  0  0  0  0  0  0  0  0  0
    5.1962    0.0000    0.0000 C   0  0  0  0  0  0  0  0  0  0  0  0
    2.5981    1.5000    0.0000 C   0  0  0  0  0  0  0  0  0  0  0  0
    6.0622    0.5000    0.0000 N   0  0  0  0  0  0  0  0  0  0  0  0
    1.7321    2.0000    0.0000 N   0  0  0  0  0  0  0  0  0  0  0  0
    6.0622    1.5000    0.0000 C   0  0  0  0  0  0  0  0  0  0  0  0
    6.9282    0.0000    0.0000 C   0  0  0  0  0  0  0  0  0  0  0  0
    3.4641   -1.0000    0.0000 C   0  0  0  0  0  0  0  0  0  0  0  0
    4.3301   -1.5000    0.0000 C   0  0  0  0  0  0  0  0  0  0  0  0
    7.7942    0.5000    0.0000 C   0  0  0  0  0  0  0  0  0  0  0  0
    5.1962    2.0000    0.0000 C   0  0  0  0  0  0  0  0  0  0  0  0
    0.8660    1.5000    0.0000 C   0  0  0  0  0  0  0  0  0  0  0  0
    0.8660    0.5000    0.0000 C   0  0  0  0  0  0  0  0  0  0  0  0
    1.7321    3.0000    0.0000 C   0  0  0  0  0  0  0  0  0  0  0  0
    0.8660    3.5000    0.0000 C   0  0  0  0  0  0  0  0  0  0  0  0
    7.7942    1.5000    0.0000 O   0  0  0  0  0  0  0  0  0  0  0  0
    5.1962   -1.0000    0.0000 O   0  0  0  0  0  0  0  0  0  0  0  0
    4.3301    1.5000    0.0000 O   0  0  0  0  0  0  0  0  0  0  0  0
   -0.0000    3.0000    0.0000 O   0  0  0  0  0  0  0  0  0  0  0  0
    1.7321    0.0000    0.0000 O   0  0  0  0  0  0  0  0  0  0  0  0
    5.1962    3.0000    0.0000 O   0  0  0  0  0  0  0  0  0  0  0  0
    4.3301   -2.5000    0.0000 O   0  0  0  0  0  0  0  0  0  0  0  0
    0.8660    4.5000    0.0000 O   0  0  0  0  0  0  0  0  0  0  0  0
   -0.0000   -0.0000    0.0000 O   0  0  0  0  0  0  0  0  0  0  0  0
  1  2  1  0
  1  3  1  0
  1 10  1  0
  2  4  1  0
  3  5  1  0
  4  6  1  0
  5  7  1  0
  6  8  1  0
  6  9  1  0
  7 14  1  0
  7 16  1  0
  8 13  1  0
  9 12  1  0
 10 11  1  0
 11 19  2  0
 11 24  1  0
 12 18  1  0
 13 20  2  0
 13 23  1  0
 14 15  1  0
 15 22  2  0
 15 26  1  0
 16 17  1  0
 17 21  2  0
 17 25  1  0
M  END
>  <logK_Eu_z=3.0_T=25_I=1.0>  (188) 
20.42

$$$$
***** HEDPA_H.MOL2
     RDKit          2D

 10  9  0  0  0  0  0  0  0  0999 V2000
   -1.0000   -1.0000    0.0000 C   0  0  0  0  0  0  0  0  0  0  0  0
    0.0000   -1.0000    0.0000 P   0  0  0  0  0  0  0  0  0  0  0  0
   -1.0000    0.0000    0.0000 P   0  0  0  0  0  0  0  0  0  0  0  0
   -0.0000   -2.0000    0.0000 O   0  0  0  0  0  0  0  0  0  0  0  0
    1.0000   -1.0000    0.0000 O   0  0  0  0  0  0  0  0  0  0  0  0
    0.0000    0.0000    0.0000 O   0  0  0  0  0  0  0  0  0  0  0  0
   -1.0000    1.0000    0.0000 O   0  0  0  0  0  0  0  0  0  0  0  0
   -0.0000   -0.0000    0.0000 O   0  0  0  0  0  0  0  0  0  0  0  0
   -2.0000    0.0000    0.0000 O   0  0  0  0  0  0  0  0  0  0  0  0
   -2.0000   -1.0000    0.0000 O   0  0  0  0  0  0  0  0  0  0  0  0
  1  2  1  0
  1  3  1  0
  1 10  1  0
  2  4  1  0
  2  5  1  0
  2  8  2  0
  3  6  1  0
  3  7  1  0
  3  9  2  0
M  END
>  <logK_Eu_z=3.0_T=25_I=1.0>  (189) 
4.6

$$$$
***** HBIDA.MOL2
     RDKit          2D

 17 17  0  0  0  0  0  0  0  0999 V2000
    0.8660   -0.5000    0.0000 C   0  0  0  0  0  0  0  0  0  0  0  0
   -0.0000   -0.0000    0.0000 C   0  0  0  0  0  0  0  0  0  0  0  0
   -0.0000    1.0000    0.0000 C   0  0  0  0  0  0  0  0  0  0  0  0
    0.8660    1.5000    0.0000 C   0  0  0  0  0  0  0  0  0  0  0  0
    1.7321    0.0000    0.0000 C   0  0  0  0  0  0  0  0  0  0  0  0
    1.7321    1.0000    0.0000 C   0  0  0  0  0  0  0  0  0  0  0  0
    2.5981   -0.5000    0.0000 C   0  0  0  0  0  0  0  0  0  0  0  0
    4.3301   -0.5000    0.0000 C   0  0  0  0  0  0  0  0  0  0  0  0
    4.3301   -1.5000    0.0000 C   0  0  0  0  0  0  0  0  0  0  0  0
    3.4641    1.0000    0.0000 C   0  0  0  0  0  0  0  0  0  0  0  0
    4.3301    1.5000    0.0000 C   0  0  0  0  0  0  0  0  0  0  0  0
    3.4641    0.0000    0.0000 N   0  0  0  0  0  0  0  0  0  0  0  0
    0.8660   -1.5000    0.0000 O   0  0  0  0  0  0  0  0  0  0  0  0
    3.4641   -2.0000    0.0000 O   0  0  0  0  0  0  0  0  0  0  0  0
    5.1962    1.0000    0.0000 O   0  0  0  0  0  0  0  0  0  0  0  0
    5.1962   -2.0000    0.0000 O   0  0  0  0  0  0  0  0  0  0  0  0
    4.3301    2.5000    0.0000 O   0  0  0  0  0  0  0  0  0  0  0  0
  1  2  2  0
  1  5  1  0
  1 13  1  0
  3  4  2  0
  3  2  1  0
  5  6  2  0
  5  7  1  0
  6  4  1  0
  7 12  1  0
  8  9  1  0
  8 12  1  0
  9 14  2  0
  9 16  1  0
 10 11  1  0
 10 12  1  0
 11 15  2  0
 11 17  1  0
M  END
>  <logK_Eu_z=3.0_T=25_I=1.0>  (190) 
13.18

$$$$
***** HBED.MOL2
     RDKit          2D

 28 29  0  0  1  0  0  0  0  0999 V2000
    4.4135    2.5481    0.0000 C   0  0  0  0  0  0  0  0  0  0  0  0
    3.9231    1.6987    0.0000 C   0  0  0  0  0  0  0  0  0  0  0  0
    6.1122    1.5673    0.0000 N   0  0  0  0  0  0  0  0  0  0  0  0
    2.9423    1.6987    0.0000 N   0  0  0  0  0  0  0  0  0  0  0  0
    6.9616    2.0577    0.0000 C   0  0  0  0  0  0  0  0  0  0  0  0
    6.1122    0.5866    0.0000 C   0  0  0  0  0  0  0  0  0  0  0  0
    5.2628    0.0962    0.0000 C   0  0  0  0  0  0  0  0  0  0  0  0
    4.9038    3.3975    0.0000 C   0  0  0  0  0  0  0  0  0  0  0  0
    4.4135    4.2469    0.0000 C   0  0  0  0  0  0  0  0  0  0  0  0
    2.4519    0.8494    0.0000 C   0  0  0  0  0  0  0  0  0  0  0  0
    1.4712    0.8494    0.0000 C   0  0  0  0  0  0  0  0  0  0  0  0
    7.8109    1.5673    0.0000 C   0  0  0  0  0  0  0  0  0  0  0  0
    0.0000    0.0000    0.0000 C   0  0  0  0  0  0  0  0  0  0  0  0
   -0.4904    0.8494    0.0000 C   0  0  0  0  0  0  0  0  0  0  0  0
   -0.0000    1.6987    0.0000 C   0  0  0  0  0  0  0  0  0  0  0  0
    0.9808    1.6987    0.0000 C   0  0  0  0  0  0  0  0  0  0  0  0
    8.6603    2.0577    0.0000 C   0  0  0  0  0  0  0  0  0  0  0  0
    9.5097    1.5673    0.0000 C   0  0  0  0  0  0  0  0  0  0  0  0
    9.5097    0.5866    0.0000 C   0  0  0  0  0  0  0  0  0  0  0  0
    8.6603    0.0962    0.0000 C   0  0  0  0  0  0  0  0  0  0  0  0
    7.8109    0.5866    0.0000 C   0  0  0  0  0  0  0  0  0  0  0  0
    4.4135    0.5866    0.0000 O   0  0  0  0  0  0  0  0  0  0  0  0
    3.4327    4.2469    0.0000 O   0  0  0  0  0  0  0  0  0  0  0  0
    4.9038    5.0962    0.0000 O   0  0  0  0  0  0  0  0  0  0  0  0
    5.2628   -0.8846    0.0000 O   0  0  0  0  0  0  0  0  0  0  0  0
    8.6603    3.0385    0.0000 O   0  0  0  0  0  0  0  0  0  0  0  0
    0.9808   -0.0000    0.0000 C   0  0  0  0  0  0  0  0  0  0  0  0
    1.4712   -0.8494    0.0000 O   0  0  0  0  0  0  0  0  0  0  0  0
  1  2  1  1
  1  3  1  0
  1  8  1  0
  2  4  1  0
  3  5  1  0
  3  6  1  0
  4 10  1  0
  5 12  1  0
  6  7  1  0
  7 22  2  0
  7 25  1  0
  8  9  1  0
  9 23  2  0
  9 24  1  0
 10 11  1  0
 11 16  1  0
 11 27  2  0
 12 17  2  0
 13 14  2  0
 14 15  1  0
 15 16  2  0
 17 26  1  0
 18 19  2  0
 18 17  1  0
 19 20  1  0
 20 21  2  0
 21 12  1  0
 27 13  1  0
 27 28  1  0
M  END
>  <logK_Eu_z=3.0_T=25_I=1.0>  (191) 
19.28

$$$$
***** H2BP18C6.mol2
     RDKit          2D

 38 40  0  0  0  0  0  0  0  0999 V2000
   -5.2822    4.8546    0.0000 N   0  0  0  0  0  0  0  0  0  0  0  0
   -0.7815    2.2561    0.0000 N   0  0  0  0  0  0  0  0  0  0  0  0
   -4.7021    5.5459    0.0000 C   0  0  0  0  0  0  0  0  0  0  0  0
   -3.9206    5.9971    0.0000 C   0  0  0  0  0  0  0  0  0  0  0  0
   -0.4729    3.1041    0.0000 C   0  0  0  0  0  0  0  0  0  0  0  0
   -0.4729    4.0066    0.0000 C   0  0  0  0  0  0  0  0  0  0  0  0
   -5.5909    4.0066    0.0000 C   0  0  0  0  0  0  0  0  0  0  0  0
   -5.5909    3.1041    0.0000 C   0  0  0  0  0  0  0  0  0  0  0  0
   -1.3616    1.5648    0.0000 C   0  0  0  0  0  0  0  0  0  0  0  0
   -2.1431    1.1136    0.0000 C   0  0  0  0  0  0  0  0  0  0  0  0
   -3.0319    6.1538    0.0000 O   0  0  0  0  0  0  0  0  0  0  0  0
   -0.7815    4.8546    0.0000 O   0  0  0  0  0  0  0  0  0  0  0  0
   -5.2822    2.2561    0.0000 O   0  0  0  0  0  0  0  0  0  0  0  0
   -3.0319    0.9569    0.0000 O   0  0  0  0  0  0  0  0  0  0  0  0
   -1.3616    5.5459    0.0000 C   0  0  0  0  0  0  0  0  0  0  0  0
   -2.1431    5.9971    0.0000 C   0  0  0  0  0  0  0  0  0  0  0  0
   -4.7021    1.5648    0.0000 C   0  0  0  0  0  0  0  0  0  0  0  0
   -3.9206    1.1136    0.0000 C   0  0  0  0  0  0  0  0  0  0  0  0
   -6.8453    5.7570    0.0000 C   0  0  0  0  0  0  0  0  0  0  0  0
   -7.6268    5.3058    0.0000 C   0  0  0  0  0  0  0  0  0  0  0  0
   -8.4084    5.7570    0.0000 C   0  0  0  0  0  0  0  0  0  0  0  0
   -9.1899    5.3058    0.0000 C   0  0  0  0  0  0  0  0  0  0  0  0
   -9.1899    4.4033    0.0000 C   0  0  0  0  0  0  0  0  0  0  0  0
   -8.4084    3.9521    0.0000 C   0  0  0  0  0  0  0  0  0  0  0  0
   -7.6268    4.4033    0.0000 N   0  0  0  0  0  0  0  0  0  0  0  0
   -8.4084    3.0497    0.0000 C   0  0  0  0  0  0  0  0  0  0  0  0
   -7.6268    2.5985    0.0000 O   0  0  0  0  0  0  0  0  0  0  0  0
   -9.1899    2.5985    0.0000 O   0  0  0  0  0  0  0  0  0  0  0  0
    0.7815    1.3537    0.0000 C   0  0  0  0  0  0  0  0  0  0  0  0
    0.7815    0.4512    0.0000 C   0  0  0  0  0  0  0  0  0  0  0  0
    1.5631    0.0000    0.0000 C   0  0  0  0  0  0  0  0  0  0  0  0
    1.5631   -0.9024    0.0000 C   0  0  0  0  0  0  0  0  0  0  0  0
    0.7815   -1.3537    0.0000 C   0  0  0  0  0  0  0  0  0  0  0  0
    0.0000   -0.9024    0.0000 C   0  0  0  0  0  0  0  0  0  0  0  0
    0.0000   -0.0000    0.0000 N   0  0  0  0  0  0  0  0  0  0  0  0
   -0.7815   -1.3537    0.0000 C   0  0  0  0  0  0  0  0  0  0  0  0
   -1.5631   -0.9024    0.0000 O   0  0  0  0  0  0  0  0  0  0  0  0
   -0.7815   -2.2561    0.0000 O   0  0  0  0  0  0  0  0  0  0  0  0
  1  3  1  0
  1  7  1  0
  1 19  1  0
  2  5  1  0
  2  9  1  0
  2 29  1  0
  3  4  1  0
  4 11  1  0
  5  6  1  0
  6 12  1  0
  7  8  1  0
  8 13  1  0
  9 10  1  0
 10 14  1  0
 12 15  1  0
 13 17  1  0
 15 16  1  0
 16 11  1  0
 17 18  1  0
 18 14  1  0
 19 20  1  0
 20 21  2  0
 20 25  1  0
 21 22  1  0
 22 23  2  0
 23 24  1  0
 24 25  2  0
 24 26  1  0
 26 27  2  0
 26 28  1  0
 29 30  1  0
 30 31  2  0
 30 35  1  0
 31 32  1  0
 32 33  2  0
 33 34  1  0
 34 35  2  0
 34 36  1  0
 36 37  2  0
 36 38  1  0
M  END
>  <logK_Eu_z=3.0_T=25_I=1.0>  (192) 
14.29

$$$$
***** H_AEDNTA.MOL2
     RDKit          2D

 26 25  0  0  1  0  0  0  0  0999 V2000
   -0.9800   -1.6974    0.0000 C   0  0  0  0  0  0  0  0  0  0  0  0
   -1.9600   -1.6974    0.0000 C   0  0  0  0  0  0  0  0  0  0  0  0
   -2.4500   -0.8487    0.0000 N   0  0  0  0  0  0  0  0  0  0  0  0
   -0.9800   -3.6574    0.0000 N   0  0  0  0  0  0  0  0  0  0  0  0
   -1.9600   -0.0000    0.0000 C   0  0  0  0  0  0  0  0  0  0  0  0
   -0.9800   -0.0000    0.0000 C   0  0  0  0  0  0  0  0  0  0  0  0
   -3.4300   -0.8487    0.0000 C   0  0  0  0  0  0  0  0  0  0  0  0
   -3.9200   -0.0000    0.0000 C   0  0  0  0  0  0  0  0  0  0  0  0
   -1.8287   -4.1474    0.0000 C   0  0  0  0  0  0  0  0  0  0  0  0
   -2.6774   -3.6574    0.0000 C   0  0  0  0  0  0  0  0  0  0  0  0
   -0.1313   -4.1474    0.0000 C   0  0  0  0  0  0  0  0  0  0  0  0
   -0.1313   -5.1274    0.0000 C   0  0  0  0  0  0  0  0  0  0  0  0
   -0.4900   -0.8487    0.0000 O   0  0  0  0  0  0  0  0  0  0  0  0
   -3.4300    0.8487    0.0000 O   0  0  0  0  0  0  0  0  0  0  0  0
   -2.6774   -2.6774    0.0000 O   0  0  0  0  0  0  0  0  0  0  0  0
   -0.9800   -5.6174    0.0000 O   0  0  0  0  0  0  0  0  0  0  0  0
   -3.5261   -4.1474    0.0000 O   0  0  0  0  0  0  0  0  0  0  0  0
   -0.4900    0.8487    0.0000 O   0  0  0  0  0  0  0  0  0  0  0  0
   -4.9000   -0.0000    0.0000 O   0  0  0  0  0  0  0  0  0  0  0  0
    0.7174   -5.6174    0.0000 O   0  0  0  0  0  0  0  0  0  0  0  0
   -0.0000   -1.6974    0.0000 C   0  0  0  0  0  0  0  0  0  0  0  0
    0.4900   -0.8487    0.0000 C   0  0  0  0  0  0  0  0  0  0  0  0
    1.4700   -0.8487    0.0000 C   0  0  0  0  0  0  0  0  0  0  0  0
    1.9600   -0.0000    0.0000 C   0  0  0  0  0  0  0  0  0  0  0  0
    1.4700    0.8487    0.0000 C   0  0  0  0  0  0  0  0  0  0  0  0
    0.4900    0.8487    0.0000 C   0  0  0  0  0  0  0  0  0  0  0  0
  1  2  1  6
  1  4  1  0
  1 21  1  0
  2  3  1  0
  3  5  1  0
  3  7  1  0
  4  9  1  0
  4 11  1  0
  5  6  1  0
  6 13  2  0
  6 18  1  0
  7  8  1  0
  8 14  2  0
  8 19  1  0
  9 10  1  0
 10 15  2  0
 10 17  1  0
 11 12  1  0
 12 16  2  0
 12 20  1  0
 21 22  1  0
 22 23  1  0
 23 24  1  0
 24 25  1  0
 25 26  1  0
M  END
>  <logK_Eu_z=3.0_T=25_I=1.0>  (193) 
18.3

$$$$
***** GLUTAMIC.MOL2
     RDKit          2D

 10  9  0  0  1  0  0  0  0  0999 V2000
    0.5000   -0.8660    0.0000 C   0  0  0  0  0  0  0  0  0  0  0  0
    0.0000   -1.7321    0.0000 C   0  0  0  0  0  0  0  0  0  0  0  0
   -1.0000   -1.7321    0.0000 C   0  0  0  0  0  0  0  0  0  0  0  0
   -1.5000   -0.8660    0.0000 C   0  0  0  0  0  0  0  0  0  0  0  0
   -2.3660   -1.3660    0.0000 C   0  0  0  0  0  0  0  0  0  0  0  0
   -2.0000   -0.0000    0.0000 N   0  0  0  0  0  0  0  0  0  0  0  0
   -2.3660   -2.3660    0.0000 O   0  0  0  0  0  0  0  0  0  0  0  0
    1.5000   -0.8660    0.0000 O   0  0  0  0  0  0  0  0  0  0  0  0
   -3.2321   -0.8660    0.0000 O   0  0  0  0  0  0  0  0  0  0  0  0
    0.0000   -0.0000    0.0000 O   0  0  0  0  0  0  0  0  0  0  0  0
  1  2  1  0
  1  8  2  0
  1 10  1  0
  2  3  1  0
  3  4  1  0
  4  5  1  0
  4  6  1  6
  5  7  2  0
  5  9  1  0
M  END
>  <logK_Eu_z=3.0_T=25_I=1.0>  (194) 
4.39

$$$$
***** EIDA.MOL2
     RDKit          2D

 11 10  0  0  0  0  0  0  0  0999 V2000
    2.5981    1.5000    0.0000 C   0  0  0  0  0  0  0  0  0  0  0  0
    2.5981    2.5000    0.0000 C   0  0  0  0  0  0  0  0  0  0  0  0
    1.7321   -0.0000    0.0000 C   0  0  0  0  0  0  0  0  0  0  0  0
    2.5981   -0.5000    0.0000 C   0  0  0  0  0  0  0  0  0  0  0  0
    3.4641    3.0000    0.0000 O   0  0  0  0  0  0  0  0  0  0  0  0
    3.4641   -0.0000    0.0000 O   0  0  0  0  0  0  0  0  0  0  0  0
    1.7321    3.0000    0.0000 O   0  0  0  0  0  0  0  0  0  0  0  0
    2.5981   -1.5000    0.0000 O   0  0  0  0  0  0  0  0  0  0  0  0
    1.7321    1.0000    0.0000 N   0  0  0  0  0  0  0  0  0  0  0  0
    0.8660    1.5000    0.0000 C   0  0  0  0  0  0  0  0  0  0  0  0
    0.0000    1.0000    0.0000 C   0  0  0  0  0  0  0  0  0  0  0  0
  1  2  1  0
  1  9  1  0
  2  5  2  0
  2  7  1  0
  3  4  1  0
  3  9  1  0
  4  6  2  0
  4  8  1  0
  9 10  1  0
 10 11  1  0
M  END
>  <logK_Eu_z=3.0_T=25_I=1.0>  (195) 
6.8

$$$$
***** EDTPH.MOL2
     RDKit          2D

 24 23  0  0  0  0  0  0  0  0999 V2000
   -0.0000   -2.7321    0.0000 C   0  0  0  0  0  0  0  0  0  0  0  0
   -1.0000   -2.7321    0.0000 C   0  0  0  0  0  0  0  0  0  0  0  0
   -1.5000   -1.8660    0.0000 N   0  0  0  0  0  0  0  0  0  0  0  0
    0.5000   -3.5981    0.0000 N   0  0  0  0  0  0  0  0  0  0  0  0
   -1.0000   -1.0000    0.0000 C   0  0  0  0  0  0  0  0  0  0  0  0
   -2.5000   -1.8660    0.0000 C   0  0  0  0  0  0  0  0  0  0  0  0
   -0.0000   -4.4641    0.0000 C   0  0  0  0  0  0  0  0  0  0  0  0
    1.5000   -3.5981    0.0000 C   0  0  0  0  0  0  0  0  0  0  0  0
    0.0000   -1.0000    0.0000 P   0  0  0  0  0  0  0  0  0  0  0  0
   -3.0000   -1.0000    0.0000 P   0  0  0  0  0  0  0  0  0  0  0  0
   -1.0000   -4.4641    0.0000 P   0  0  0  0  0  0  0  0  0  0  0  0
    2.0000   -4.4641    0.0000 P   0  0  0  0  0  0  0  0  0  0  0  0
   -0.0000   -2.0000    0.0000 O   0  0  0  0  0  0  0  0  0  0  0  0
    1.0000   -1.0000    0.0000 O   0  0  0  0  0  0  0  0  0  0  0  0
   -2.1340   -0.5000    0.0000 O   0  0  0  0  0  0  0  0  0  0  0  0
   -3.5000   -0.1340    0.0000 O   0  0  0  0  0  0  0  0  0  0  0  0
   -1.0000   -3.4641    0.0000 O   0  0  0  0  0  0  0  0  0  0  0  0
   -2.0000   -4.4641    0.0000 O   0  0  0  0  0  0  0  0  0  0  0  0
    1.1340   -4.9641    0.0000 O   0  0  0  0  0  0  0  0  0  0  0  0
    2.5000   -5.3301    0.0000 O   0  0  0  0  0  0  0  0  0  0  0  0
    0.0000   -0.0000    0.0000 O   0  0  0  0  0  0  0  0  0  0  0  0
   -3.8660   -1.5000    0.0000 O   0  0  0  0  0  0  0  0  0  0  0  0
    2.8660   -3.9641    0.0000 O   0  0  0  0  0  0  0  0  0  0  0  0
   -1.0000   -5.4641    0.0000 O   0  0  0  0  0  0  0  0  0  0  0  0
  1  2  1  0
  1  4  1  0
  2  3  1  0
  3  5  1  0
  3  6  1  0
  4  7  1  0
  4  8  1  0
  5  9  1  0
  6 10  1  0
  7 11  1  0
  8 12  1  0
  9 13  1  0
  9 14  1  0
  9 21  2  0
 10 15  1  0
 10 16  1  0
 10 22  2  0
 11 17  1  0
 11 18  1  0
 11 24  2  0
 12 19  1  0
 12 20  1  0
 12 23  2  0
M  END
>  <logK_Eu_z=3.0_T=25_I=1.0>  (196) 
7.31

$$$$
***** EDDS.MOL2
     RDKit          2D

 20 19  0  0  1  0  0  0  0  0999 V2000
   -4.0000    0.0000    0.0000 C   0  0  0  0  0  0  0  0  0  0  0  0
   -5.0000    0.0000    0.0000 C   0  0  0  0  0  0  0  0  0  0  0  0
   -5.5000    0.8660    0.0000 N   0  0  0  0  0  0  0  0  0  0  0  0
   -3.5000   -0.8660    0.0000 N   0  0  0  0  0  0  0  0  0  0  0  0
   -6.5000    0.8660    0.0000 C   0  0  0  0  0  0  0  0  0  0  0  0
   -2.5000   -0.8660    0.0000 C   0  0  0  0  0  0  0  0  0  0  0  0
   -6.5000    1.8660    0.0000 C   0  0  0  0  0  0  0  0  0  0  0  0
   -2.5000   -1.8660    0.0000 C   0  0  0  0  0  0  0  0  0  0  0  0
   -7.5000    0.8660    0.0000 C   0  0  0  0  0  0  0  0  0  0  0  0
   -8.0000    0.0000    0.0000 C   0  0  0  0  0  0  0  0  0  0  0  0
   -1.5000   -0.8660    0.0000 C   0  0  0  0  0  0  0  0  0  0  0  0
   -1.0000    0.0000    0.0000 C   0  0  0  0  0  0  0  0  0  0  0  0
   -7.5000   -0.8660    0.0000 O   0  0  0  0  0  0  0  0  0  0  0  0
   -5.6340    2.3660    0.0000 O   0  0  0  0  0  0  0  0  0  0  0  0
   -3.3660   -2.3660    0.0000 O   0  0  0  0  0  0  0  0  0  0  0  0
   -1.5000    0.8660    0.0000 O   0  0  0  0  0  0  0  0  0  0  0  0
   -9.0000    0.0000    0.0000 O   0  0  0  0  0  0  0  0  0  0  0  0
   -7.3660    2.3660    0.0000 O   0  0  0  0  0  0  0  0  0  0  0  0
   -1.6340   -2.3660    0.0000 O   0  0  0  0  0  0  0  0  0  0  0  0
    0.0000   -0.0000    0.0000 O   0  0  0  0  0  0  0  0  0  0  0  0
  1  2  1  0
  1  4  1  0
  2  3  1  0
  3  5  1  0
  4  6  1  0
  5  7  1  0
  5  9  1  6
  6  8  1  0
  6 11  1  6
  7 14  2  0
  7 18  1  0
  8 15  2  0
  8 19  1  0
  9 10  1  0
 10 13  2  0
 10 17  1  0
 11 12  1  0
 12 16  2  0
 12 20  1  0
M  END
>  <logK_Eu_z=3.0_T=25_I=1.0>  (197) 
13.83

$$$$
***** EDDG.MOL2
     RDKit          2D

 22 21  0  0  1  0  0  0  0  0999 V2000
    4.5000    0.8660    0.0000 C   0  0  0  0  0  0  0  0  0  0  0  0
    5.5000    0.8660    0.0000 C   0  0  0  0  0  0  0  0  0  0  0  0
    6.0000   -0.0000    0.0000 N   0  0  0  0  0  0  0  0  0  0  0  0
    4.0000    1.7321    0.0000 N   0  0  0  0  0  0  0  0  0  0  0  0
    7.0000   -0.0000    0.0000 C   0  0  0  0  0  0  0  0  0  0  0  0
    3.0000    1.7321    0.0000 C   0  0  0  0  0  0  0  0  0  0  0  0
    7.0000   -1.0000    0.0000 C   0  0  0  0  0  0  0  0  0  0  0  0
    3.0000    2.7321    0.0000 C   0  0  0  0  0  0  0  0  0  0  0  0
    8.0000   -0.0000    0.0000 C   0  0  0  0  0  0  0  0  0  0  0  0
    8.5000    0.8660    0.0000 C   0  0  0  0  0  0  0  0  0  0  0  0
    9.5000    0.8660    0.0000 C   0  0  0  0  0  0  0  0  0  0  0  0
    2.0000    1.7321    0.0000 C   0  0  0  0  0  0  0  0  0  0  0  0
    1.5000    0.8660    0.0000 C   0  0  0  0  0  0  0  0  0  0  0  0
    0.5000    0.8660    0.0000 C   0  0  0  0  0  0  0  0  0  0  0  0
    6.1340   -1.5000    0.0000 O   0  0  0  0  0  0  0  0  0  0  0  0
   10.0000    0.0000    0.0000 O   0  0  0  0  0  0  0  0  0  0  0  0
    3.8660    3.2321    0.0000 O   0  0  0  0  0  0  0  0  0  0  0  0
    0.0000    1.7321    0.0000 O   0  0  0  0  0  0  0  0  0  0  0  0
   10.0000    1.7321    0.0000 O   0  0  0  0  0  0  0  0  0  0  0  0
    7.8660   -1.5000    0.0000 O   0  0  0  0  0  0  0  0  0  0  0  0
    2.1340    3.2321    0.0000 O   0  0  0  0  0  0  0  0  0  0  0  0
    0.0000    0.0000    0.0000 O   0  0  0  0  0  0  0  0  0  0  0  0
  1  2  1  0
  1  4  1  0
  2  3  1  0
  3  5  1  0
  4  6  1  0
  5  7  1  0
  5  9  1  1
  6  8  1  0
  6 12  1  1
  7 15  1  0
  7 20  2  0
  8 17  1  0
  8 21  2  0
  9 10  1  0
 10 11  1  0
 11 16  1  0
 11 19  2  0
 12 13  1  0
 13 14  1  0
 14 18  1  0
 14 22  2  0
M  END
>  <logK_Eu_z=3.0_T=25_I=1.0>  (198) 
8.48

$$$$
***** EDDAG-DA.mol2
     RDKit          2D

 28 27  0  0  0  0  0  0  0  0999 V2000
   -5.1962    2.0000    0.0000 C   0  0  0  0  0  0  0  0  0  0  0  0
   -6.0622    1.5000    0.0000 C   0  0  0  0  0  0  0  0  0  0  0  0
   -6.9282    2.0000    0.0000 N   0  0  0  0  0  0  0  0  0  0  0  0
   -4.3301    1.5000    0.0000 N   0  0  0  0  0  0  0  0  0  0  0  0
   -6.9282    3.0000    0.0000 C   0  0  0  0  0  0  0  0  0  0  0  0
   -6.0622    3.5000    0.0000 C   0  0  0  0  0  0  0  0  0  0  0  0
   -5.1962    3.0000    0.0000 O   0  0  0  0  0  0  0  0  0  0  0  0
   -6.0622    4.5000    0.0000 O   0  0  0  0  0  0  0  0  0  0  0  0
   -7.7942    1.5000    0.0000 C   0  0  0  0  0  0  0  0  0  0  0  0
   -8.6603    2.0000    0.0000 C   0  0  0  0  0  0  0  0  0  0  0  0
   -8.6603    3.0000    0.0000 O   0  0  0  0  0  0  0  0  0  0  0  0
   -9.5263    1.5000    0.0000 N   0  0  0  0  0  0  0  0  0  0  0  0
  -10.3923    2.0000    0.0000 C   0  0  0  0  0  0  0  0  0  0  0  0
  -10.3923    3.0000    0.0000 C   0  0  0  0  0  0  0  0  0  0  0  0
   -9.5263    3.5000    0.0000 O   0  0  0  0  0  0  0  0  0  0  0  0
  -11.2583    3.5000    0.0000 O   0  0  0  0  0  0  0  0  0  0  0  0
   -4.3301    0.5000    0.0000 C   0  0  0  0  0  0  0  0  0  0  0  0
   -5.1962    0.0000    0.0000 C   0  0  0  0  0  0  0  0  0  0  0  0
   -6.0622    0.5000    0.0000 O   0  0  0  0  0  0  0  0  0  0  0  0
   -5.1962   -1.0000    0.0000 O   0  0  0  0  0  0  0  0  0  0  0  0
   -3.4641    2.0000    0.0000 C   0  0  0  0  0  0  0  0  0  0  0  0
   -2.5981    1.5000    0.0000 C   0  0  0  0  0  0  0  0  0  0  0  0
   -2.5981    0.5000    0.0000 O   0  0  0  0  0  0  0  0  0  0  0  0
   -1.7321    2.0000    0.0000 N   0  0  0  0  0  0  0  0  0  0  0  0
   -0.8660    1.5000    0.0000 C   0  0  0  0  0  0  0  0  0  0  0  0
   -0.8660    0.5000    0.0000 C   0  0  0  0  0  0  0  0  0  0  0  0
   -1.7321   -0.0000    0.0000 O   0  0  0  0  0  0  0  0  0  0  0  0
    0.0000   -0.0000    0.0000 O   0  0  0  0  0  0  0  0  0  0  0  0
  1  2  1  0
  1  4  1  0
  2  3  1  0
  3  5  1  0
  3  9  1  0
  4 17  1  0
  4 21  1  0
  5  6  1  0
  6  7  2  0
  6  8  1  0
  9 10  1  0
 10 11  2  0
 10 12  1  0
 12 13  1  0
 13 14  1  0
 14 15  2  0
 14 16  1  0
 17 18  1  0
 18 19  2  0
 18 20  1  0
 21 22  1  0
 22 23  2  0
 22 24  1  0
 24 25  1  0
 25 26  1  0
 26 27  2  0
 26 28  1  0
M  END
>  <logK_Eu_z=3.0_T=25_I=1.0>  (199) 
18.3

$$$$
***** DHPIDA.MOL2
     RDKit          2D

 14 13  0  0  1  0  0  0  0  0999 V2000
    4.3200   -2.4942    0.0000 C   0  0  0  0  0  0  0  0  0  0  0  0
    5.1514   -2.0142    0.0000 C   0  0  0  0  0  0  0  0  0  0  0  0
    3.8400   -1.6628    0.0000 C   0  0  0  0  0  0  0  0  0  0  0  0
    1.9200   -1.6628    0.0000 N   0  0  0  0  0  0  0  0  0  0  0  0
    1.4400   -2.4942    0.0000 C   0  0  0  0  0  0  0  0  0  0  0  0
    1.9200   -3.3255    0.0000 C   0  0  0  0  0  0  0  0  0  0  0  0
    1.4400   -0.8314    0.0000 C   0  0  0  0  0  0  0  0  0  0  0  0
    0.4800   -0.8314    0.0000 C   0  0  0  0  0  0  0  0  0  0  0  0
    5.1514   -1.0542    0.0000 O   0  0  0  0  0  0  0  0  0  0  0  0
    3.4886   -2.9742    0.0000 O   0  0  0  0  0  0  0  0  0  0  0  0
    2.8800   -3.3255    0.0000 O   0  0  0  0  0  0  0  0  0  0  0  0
   -0.0000   -1.6628    0.0000 O   0  0  0  0  0  0  0  0  0  0  0  0
    1.4400   -4.1569    0.0000 O   0  0  0  0  0  0  0  0  0  0  0  0
   -0.0000   -0.0000    0.0000 O   0  0  0  0  0  0  0  0  0  0  0  0
  1  2  1  0
  1  3  1  0
  1 10  1  6
  2  9  1  0
  3  4  1  0
  4  5  1  0
  4  7  1  0
  5  6  1  0
  6 11  2  0
  6 13  1  0
  7  8  1  0
  8 12  2  0
  8 14  1  0
M  END
>  <logK_Eu_z=3.0_T=25_I=1.0>  (200) 
8.51

$$$$
***** DAPTA.MOL2
     RDKit          2D

 23 22  0  0  1  0  0  0  0  0999 V2000
    0.8056   -3.2558    0.0000 C   0  0  0  0  0  0  0  0  0  0  0  0
    1.6112   -3.7209    0.0000 C   0  0  0  0  0  0  0  0  0  0  0  0
    1.2707   -2.4502    0.0000 C   0  0  0  0  0  0  0  0  0  0  0  0
    3.1312   -2.4502    0.0000 C   0  0  0  0  0  0  0  0  0  0  0  0
    3.1312   -0.5897    0.0000 C   0  0  0  0  0  0  0  0  0  0  0  0
    4.0614   -2.4502    0.0000 N   0  0  0  0  0  0  0  0  0  0  0  0
   -0.8056   -2.3256    0.0000 N   0  0  0  0  0  0  0  0  0  0  0  0
    4.5265   -3.2558    0.0000 C   0  0  0  0  0  0  0  0  0  0  0  0
    4.0614   -4.0614    0.0000 C   0  0  0  0  0  0  0  0  0  0  0  0
    4.5265   -1.6446    0.0000 C   0  0  0  0  0  0  0  0  0  0  0  0
    5.4568   -1.6446    0.0000 C   0  0  0  0  0  0  0  0  0  0  0  0
   -0.8056   -1.3953    0.0000 C   0  0  0  0  0  0  0  0  0  0  0  0
   -0.0000   -0.9302    0.0000 C   0  0  0  0  0  0  0  0  0  0  0  0
   -1.6112   -2.7907    0.0000 C   0  0  0  0  0  0  0  0  0  0  0  0
   -2.4168   -2.3256    0.0000 C   0  0  0  0  0  0  0  0  0  0  0  0
    3.1312   -4.0614    0.0000 O   0  0  0  0  0  0  0  0  0  0  0  0
    5.9219   -2.4502    0.0000 O   0  0  0  0  0  0  0  0  0  0  0  0
   -2.4168   -1.3953    0.0000 O   0  0  0  0  0  0  0  0  0  0  0  0
    0.8056   -1.3953    0.0000 O   0  0  0  0  0  0  0  0  0  0  0  0
    4.5265   -4.8670    0.0000 O   0  0  0  0  0  0  0  0  0  0  0  0
    5.9219   -0.8390    0.0000 O   0  0  0  0  0  0  0  0  0  0  0  0
   -3.2224   -2.7907    0.0000 O   0  0  0  0  0  0  0  0  0  0  0  0
   -0.0000   -0.0000    0.0000 O   0  0  0  0  0  0  0  0  0  0  0  0
  1  2  1  1
  1  3  1  0
  1  7  1  0
  3  4  1  0
  4  5  1  6
  4  6  1  0
  6  8  1  0
  6 10  1  0
  7 12  1  0
  7 14  1  0
  8  9  1  0
  9 16  2  0
  9 20  1  0
 10 11  1  0
 11 17  2  0
 11 21  1  0
 12 13  1  0
 13 19  2  0
 13 23  1  0
 14 15  1  0
 15 18  2  0
 15 22  1  0
M  END
>  <logK_Eu_z=3.0_T=25_I=1.0>  (201) 
12.03

$$$$
***** DAPOTA.MOL2
     RDKit          2D

 23 22  0  0  1  0  0  0  0  0999 V2000
    0.0000   -2.9118    0.0000 C   0  0  0  0  0  0  0  0  0  0  0  0
    0.8406   -2.4265    0.0000 C   0  0  0  0  0  0  0  0  0  0  0  0
    1.3258   -3.2670    0.0000 C   0  0  0  0  0  0  0  0  0  0  0  0
    2.5217   -1.4559    0.0000 N   0  0  0  0  0  0  0  0  0  0  0  0
   -0.8406   -2.4265    0.0000 N   0  0  0  0  0  0  0  0  0  0  0  0
    2.5217   -0.4853    0.0000 C   0  0  0  0  0  0  0  0  0  0  0  0
    1.6811    0.0000    0.0000 C   0  0  0  0  0  0  0  0  0  0  0  0
    3.3622   -1.9412    0.0000 C   0  0  0  0  0  0  0  0  0  0  0  0
    4.2028   -1.4559    0.0000 C   0  0  0  0  0  0  0  0  0  0  0  0
   -0.8406   -1.4559    0.0000 C   0  0  0  0  0  0  0  0  0  0  0  0
    0.0000   -0.9706    0.0000 C   0  0  0  0  0  0  0  0  0  0  0  0
   -1.6811   -2.9118    0.0000 C   0  0  0  0  0  0  0  0  0  0  0  0
   -2.5217   -2.4265    0.0000 C   0  0  0  0  0  0  0  0  0  0  0  0
    0.8406   -4.1076    0.0000 O   0  0  0  0  0  0  0  0  0  0  0  0
    0.8406   -0.4853    0.0000 O   0  0  0  0  0  0  0  0  0  0  0  0
    4.2028   -0.4853    0.0000 O   0  0  0  0  0  0  0  0  0  0  0  0
    0.8406   -1.4559    0.0000 O   0  0  0  0  0  0  0  0  0  0  0  0
   -2.5217   -1.4559    0.0000 O   0  0  0  0  0  0  0  0  0  0  0  0
    1.6811    0.9706    0.0000 O   0  0  0  0  0  0  0  0  0  0  0  0
    5.0433   -1.9412    0.0000 O   0  0  0  0  0  0  0  0  0  0  0  0
    2.2964   -3.2670    0.0000 O   0  0  0  0  0  0  0  0  0  0  0  0
   -3.3622   -2.9118    0.0000 O   0  0  0  0  0  0  0  0  0  0  0  0
   -0.0000   -0.0000    0.0000 O   0  0  0  0  0  0  0  0  0  0  0  0
  2  1  1  6
  1  5  1  0
  2  3  1  0
  2  4  1  0
  3 14  2  0
  3 21  1  0
  4  6  1  0
  4  8  1  0
  5 10  1  0
  5 12  1  0
  6  7  1  0
  7 15  2  0
  7 19  1  0
  8  9  1  0
  9 16  2  0
  9 20  1  0
 10 11  1  0
 11 17  2  0
 11 23  1  0
 12 13  1  0
 13 18  2  0
 13 22  1  0
M  END
>  <logK_Eu_z=3.0_T=25_I=1.0>  (202) 
15.93

$$$$
***** DAP_N_DMA.MOL2
     RDKit          2D

 21 20  0  0  1  0  0  0  0  0999 V2000
   -3.0000    0.0000    0.0000 C   0  0  0  0  0  0  0  0  0  0  0  0
   -4.0000    0.0000    0.0000 C   0  0  0  0  0  0  0  0  0  0  0  0
   -2.5000   -0.8660    0.0000 N   0  0  0  0  0  0  0  0  0  0  0  0
   -4.0000    1.0000    0.0000 N   0  0  0  0  0  0  0  0  0  0  0  0
   -3.1340    1.5000    0.0000 C   0  0  0  0  0  0  0  0  0  0  0  0
   -3.6340    2.3660    0.0000 C   0  0  0  0  0  0  0  0  0  0  0  0
   -2.2679    2.0000    0.0000 C   0  0  0  0  0  0  0  0  0  0  0  0
   -5.0000    0.0000    0.0000 C   0  0  0  0  0  0  0  0  0  0  0  0
   -1.5000   -0.8660    0.0000 C   0  0  0  0  0  0  0  0  0  0  0  0
   -1.5000   -1.8660    0.0000 C   0  0  0  0  0  0  0  0  0  0  0  0
   -0.5000   -0.8660    0.0000 C   0  0  0  0  0  0  0  0  0  0  0  0
   -2.2679    3.0000    0.0000 O   0  0  0  0  0  0  0  0  0  0  0  0
   -4.6340    2.3660    0.0000 O   0  0  0  0  0  0  0  0  0  0  0  0
   -0.0000   -1.7321    0.0000 O   0  0  0  0  0  0  0  0  0  0  0  0
   -2.3660   -2.3660    0.0000 O   0  0  0  0  0  0  0  0  0  0  0  0
   -5.5000    0.8660    0.0000 O   0  0  0  0  0  0  0  0  0  0  0  0
   -1.4019    1.5000    0.0000 O   0  0  0  0  0  0  0  0  0  0  0  0
   -3.1340    3.2321    0.0000 O   0  0  0  0  0  0  0  0  0  0  0  0
   -5.5000   -0.8660    0.0000 O   0  0  0  0  0  0  0  0  0  0  0  0
   -0.6340   -2.3660    0.0000 O   0  0  0  0  0  0  0  0  0  0  0  0
    0.0000   -0.0000    0.0000 O   0  0  0  0  0  0  0  0  0  0  0  0
  2  1  1  6
  1  3  1  0
  2  4  1  0
  2  8  1  0
  3  9  1  0
  4  5  1  0
  5  6  1  0
  5  7  1  0
  6 13  2  0
  6 18  1  0
  7 12  2  0
  7 17  1  0
  8 16  2  0
  8 19  1  0
  9 10  1  0
  9 11  1  0
 10 15  2  0
 10 20  1  0
 11 14  2  0
 11 21  1  0
M  END
>  <logK_Eu_z=3.0_T=25_I=1.0>  (203) 
12.15

$$$$
***** CYPAM.MOL2
     RDKit          2D

 14 13  0  0  1  0  0  0  0  0999 V2000
    1.5000   -2.5981    0.0000 C   0  0  0  0  0  0  0  0  0  0  0  0
    2.5000   -2.5981    0.0000 C   0  0  0  0  0  0  0  0  0  0  0  0
    3.0000   -1.7321    0.0000 C   0  0  0  0  0  0  0  0  0  0  0  0
    1.5000   -3.5981    0.0000 C   0  0  0  0  0  0  0  0  0  0  0  0
   -0.0000   -1.7321    0.0000 C   0  0  0  0  0  0  0  0  0  0  0  0
   -0.8660   -2.2321    0.0000 C   0  0  0  0  0  0  0  0  0  0  0  0
   -0.5000   -0.8660    0.0000 C   0  0  0  0  0  0  0  0  0  0  0  0
    0.5000   -2.5981    0.0000 N   0  0  0  0  0  0  0  0  0  0  0  0
    2.3660   -4.0981    0.0000 O   0  0  0  0  0  0  0  0  0  0  0  0
   -0.8660   -3.2321    0.0000 O   0  0  0  0  0  0  0  0  0  0  0  0
   -1.5000   -0.8660    0.0000 O   0  0  0  0  0  0  0  0  0  0  0  0
    0.6340   -4.0981    0.0000 O   0  0  0  0  0  0  0  0  0  0  0  0
   -1.7321   -1.7321    0.0000 O   0  0  0  0  0  0  0  0  0  0  0  0
    0.0000    0.0000    0.0000 O   0  0  0  0  0  0  0  0  0  0  0  0
  1  2  1  1
  1  4  1  0
  1  8  1  0
  2  3  1  0
  4  9  2  0
  4 12  1  0
  5  6  1  0
  5  7  1  0
  5  8  1  0
  6 10  2  0
  6 13  1  0
  7 11  2  0
  7 14  1  0
M  END
>  <logK_Eu_z=3.0_T=25_I=1.0>  (204) 
8.5

$$$$
***** CYME4-BTBPHEN.MOL2
     RDKit          2D

 34 40  0  0  0  0  0  0  0  0999 V2000
   -1.7321   -8.0000    0.0000 C   0  0  0  0  0  0  0  0  0  0  0  0
   -2.5981   -7.5000    0.0000 C   0  0  0  0  0  0  0  0  0  0  0  0
   -0.8660   -7.5000    0.0000 C   0  0  0  0  0  0  0  0  0  0  0  0
   -0.8660   -6.5000    0.0000 C   0  0  0  0  0  0  0  0  0  0  0  0
   -1.7321   -6.0000    0.0000 C   0  0  0  0  0  0  0  0  0  0  0  0
   -2.5981   -6.5000    0.0000 C   0  0  0  0  0  0  0  0  0  0  0  0
   -3.4641   -8.0000    0.0000 C   0  0  0  0  0  0  0  0  0  0  0  0
   -4.3301   -7.5000    0.0000 C   0  0  0  0  0  0  0  0  0  0  0  0
    0.0000   -6.0000    0.0000 C   0  0  0  0  0  0  0  0  0  0  0  0
    0.0000   -5.0000    0.0000 C   0  0  0  0  0  0  0  0  0  0  0  0
   -4.3301   -6.5000    0.0000 C   0  0  0  0  0  0  0  0  0  0  0  0
   -0.8660   -4.5000    0.0000 C   0  0  0  0  0  0  0  0  0  0  0  0
   -3.4641   -6.0000    0.0000 N   0  0  0  0  0  0  0  0  0  0  0  0
   -1.7321   -5.0000    0.0000 N   0  0  0  0  0  0  0  0  0  0  0  0
   -5.1962   -6.0000    0.0000 C   0  0  0  0  0  0  0  0  0  0  0  0
   -0.8660   -3.5000    0.0000 C   0  0  0  0  0  0  0  0  0  0  0  0
   -6.0622   -6.5000    0.0000 N   0  0  0  0  0  0  0  0  0  0  0  0
   -1.7321   -3.0000    0.0000 N   0  0  0  0  0  0  0  0  0  0  0  0
   -5.1962   -5.0000    0.0000 N   0  0  0  0  0  0  0  0  0  0  0  0
    0.0000   -3.0000    0.0000 N   0  0  0  0  0  0  0  0  0  0  0  0
   -6.9282   -6.0000    0.0000 C   0  0  0  0  0  0  0  0  0  0  0  0
   -1.7321   -2.0000    0.0000 C   0  0  0  0  0  0  0  0  0  0  0  0
   -6.0622   -4.5000    0.0000 C   0  0  0  0  0  0  0  0  0  0  0  0
    0.0000   -2.0000    0.0000 C   0  0  0  0  0  0  0  0  0  0  0  0
   -6.9282   -5.0000    0.0000 C   0  0  0  0  0  0  0  0  0  0  0  0
   -0.8660   -1.5000    0.0000 C   0  0  0  0  0  0  0  0  0  0  0  0
   -6.0622   -3.5000    0.0000 C   0  0  0  0  0  0  0  0  0  0  0  0
   -7.7942   -4.5000    0.0000 C   0  0  0  0  0  0  0  0  0  0  0  0
    0.8660   -1.5000    0.0000 C   0  0  0  0  0  0  0  0  0  0  0  0
   -0.8660   -0.5000    0.0000 C   0  0  0  0  0  0  0  0  0  0  0  0
   -6.9282   -3.0000    0.0000 C   0  0  0  0  0  0  0  0  0  0  0  0
   -7.7942   -3.5000    0.0000 C   0  0  0  0  0  0  0  0  0  0  0  0
   -0.0000   -0.0000    0.0000 C   0  0  0  0  0  0  0  0  0  0  0  0
    0.8660   -0.5000    0.0000 C   0  0  0  0  0  0  0  0  0  0  0  0
  1  2  2  0
  1  3  1  0
  2  6  1  0
  2  7  1  0
  3  4  2  0
  4  5  1  0
  4  9  1  0
  5  6  2  0
  5 14  1  0
  6 13  1  0
  7  8  2  0
  8 11  1  0
  9 10  2  0
 10 12  1  0
 11 13  2  0
 11 15  1  0
 12 14  2  0
 12 16  1  0
 15 17  2  0
 15 19  1  0
 16 18  2  0
 16 20  1  0
 17 21  1  0
 18 22  1  0
 19 23  2  0
 20 24  2  0
 23 25  1  0
 23 27  1  0
 24 26  1  0
 24 29  1  0
 25 21  2  0
 25 28  1  0
 26 22  2  0
 26 30  1  0
 27 31  2  0
 28 32  2  0
 29 34  2  0
 30 33  2  0
 31 32  1  0
 34 33  1  0
M  END
>  <logK_Eu_z=3.0_T=25_I=1.0>  (205) 
7.9

$$$$
***** CYME4-BTBP.MOL2
     RDKit          2D

 40 45  0  0  0  0  0  0  0  0999 V2000
    0.8262   -4.2931    0.0000 C   0  0  0  0  0  0  0  0  0  0  0  0
   -0.0000   -4.7701    0.0000 C   0  0  0  0  0  0  0  0  0  0  0  0
   -0.8262   -4.2931    0.0000 C   0  0  0  0  0  0  0  0  0  0  0  0
    0.8262   -3.3391    0.0000 C   0  0  0  0  0  0  0  0  0  0  0  0
   -0.0000   -2.8621    0.0000 C   0  0  0  0  0  0  0  0  0  0  0  0
   -0.8262   -3.3391    0.0000 N   0  0  0  0  0  0  0  0  0  0  0  0
   -1.6524   -4.7701    0.0000 C   0  0  0  0  0  0  0  0  0  0  0  0
   -1.6524   -5.7241    0.0000 C   0  0  0  0  0  0  0  0  0  0  0  0
   -2.4786   -6.2011    0.0000 C   0  0  0  0  0  0  0  0  0  0  0  0
   -3.3048   -5.7241    0.0000 C   0  0  0  0  0  0  0  0  0  0  0  0
   -3.3048   -4.7701    0.0000 C   0  0  0  0  0  0  0  0  0  0  0  0
   -2.4786   -4.2931    0.0000 N   0  0  0  0  0  0  0  0  0  0  0  0
   -4.1310   -4.2931    0.0000 C   0  0  0  0  0  0  0  0  0  0  0  0
   -0.0000   -1.9080    0.0000 C   0  0  0  0  0  0  0  0  0  0  0  0
   -4.9572   -4.7701    0.0000 N   0  0  0  0  0  0  0  0  0  0  0  0
   -0.8262   -1.4310    0.0000 N   0  0  0  0  0  0  0  0  0  0  0  0
   -4.1310   -3.3391    0.0000 N   0  0  0  0  0  0  0  0  0  0  0  0
   -0.8262   -0.4770    0.0000 N   0  0  0  0  0  0  0  0  0  0  0  0
    0.8262   -1.4310    0.0000 N   0  0  0  0  0  0  0  0  0  0  0  0
   -4.9572   -2.8621    0.0000 N   0  0  0  0  0  0  0  0  0  0  0  0
   -5.7835   -4.2931    0.0000 C   0  0  0  0  0  0  0  0  0  0  0  0
   -5.7835   -3.3391    0.0000 C   0  0  0  0  0  0  0  0  0  0  0  0
    0.8262   -0.4770    0.0000 C   0  0  0  0  0  0  0  0  0  0  0  0
    0.0000   -0.0000    0.0000 C   0  0  0  0  0  0  0  0  0  0  0  0
   -6.6097   -4.7701    0.0000 C   0  0  0  0  0  0  0  0  0  0  0  0
   -7.4359   -4.2931    0.0000 C   0  0  0  0  0  0  0  0  0  0  0  0
   -7.4359   -3.3391    0.0000 C   0  0  0  0  0  0  0  0  0  0  0  0
   -6.6097   -2.8621    0.0000 C   0  0  0  0  0  0  0  0  0  0  0  0
   -7.5637   -6.4225    0.0000 C   0  0  0  0  0  0  0  0  0  0  0  0
   -6.1327   -5.5963    0.0000 C   0  0  0  0  0  0  0  0  0  0  0  0
   -5.6556   -1.2097    0.0000 C   0  0  0  0  0  0  0  0  0  0  0  0
   -7.0867   -2.0359    0.0000 C   0  0  0  0  0  0  0  0  0  0  0  0
    1.6524   -0.0000    0.0000 C   0  0  0  0  0  0  0  0  0  0  0  0
    1.6524    0.9540    0.0000 C   0  0  0  0  0  0  0  0  0  0  0  0
    0.8262    1.4310    0.0000 C   0  0  0  0  0  0  0  0  0  0  0  0
    0.0000    0.9540    0.0000 C   0  0  0  0  0  0  0  0  0  0  0  0
   -0.9540    2.6064    0.0000 C   0  0  0  0  0  0  0  0  0  0  0  0
   -0.9540    0.9540    0.0000 C   0  0  0  0  0  0  0  0  0  0  0  0
    2.6064   -1.6524    0.0000 C   0  0  0  0  0  0  0  0  0  0  0  0
    2.6064   -0.0000    0.0000 C   0  0  0  0  0  0  0  0  0  0  0  0
  1  2  2  0
  1  4  1  0
  2  3  1  0
  3  6  2  0
  3  7  1  0
  4  5  2  0
  5  6  1  0
  5 14  1  0
  7  8  2  0
  7 12  1  0
  8  9  1  0
  9 10  2  0
 10 11  1  0
 11 12  2  0
 11 13  1  0
 13 15  2  0
 13 17  1  0
 14 16  2  0
 14 19  1  0
 15 21  1  0
 16 18  1  0
 17 20  2  0
 20 22  1  0
 21 22  2  0
 21 25  1  0
 23 24  1  0
 23 19  2  0
 23 33  1  0
 24 18  2  0
 25 26  1  0
 25 29  1  0
 25 30  1  0
 26 27  1  0
 27 28  1  0
 28 22  1  0
 28 31  1  0
 28 32  1  0
 33 34  1  0
 33 39  1  0
 33 40  1  0
 34 35  1  0
 35 36  1  0
 36 24  1  0
 36 37  1  0
 36 38  1  0
M  END
>  <logK_Eu_z=3.0_T=25_I=1.0>  (206) 
6.5

$$$$
***** CYCLO_COZA.MOL2
     RDKit          2D

 27 28  0  0  1  0  0  0  0  0999 V2000
    4.4987    1.6374    0.0000 C   0  0  0  0  0  0  0  0  0  0  0  0
    4.4987    0.7933    0.0000 C   0  0  0  0  0  0  0  0  0  0  0  0
    4.2100    2.4307    0.0000 O   0  0  0  0  0  0  0  0  0  0  0  0
    4.2100    0.0000    0.0000 O   0  0  0  0  0  0  0  0  0  0  0  0
    3.6674    3.0773    0.0000 C   0  0  0  0  0  0  0  0  0  0  0  0
    2.9363    3.4994    0.0000 C   0  0  0  0  0  0  0  0  0  0  0  0
    3.6674   -0.6467    0.0000 C   0  0  0  0  0  0  0  0  0  0  0  0
    2.9363   -1.0687    0.0000 C   0  0  0  0  0  0  0  0  0  0  0  0
    2.1050    3.6460    0.0000 N   0  0  0  0  0  0  0  0  0  0  0  0
    2.1050   -1.2153    0.0000 N   0  0  0  0  0  0  0  0  0  0  0  0
    3.0298   -1.3010    0.0000 C   0  0  0  0  0  0  0  0  0  0  0  0
    3.9230   -1.0469    0.0000 C   0  0  0  0  0  0  0  0  0  0  0  0
    3.0298    3.7317    0.0000 C   0  0  0  0  0  0  0  0  0  0  0  0
    3.9230    3.4775    0.0000 C   0  0  0  0  0  0  0  0  0  0  0  0
    4.6642    2.9178    0.0000 O   0  0  0  0  0  0  0  0  0  0  0  0
    1.2737    3.4994    0.0000 C   0  0  0  0  0  0  0  0  0  0  0  0
    0.5426    3.0773    0.0000 C   0  0  0  0  0  0  0  0  0  0  0  0
    1.2737   -1.0687    0.0000 C   0  0  0  0  0  0  0  0  0  0  0  0
    0.5426   -0.6467    0.0000 C   0  0  0  0  0  0  0  0  0  0  0  0
    0.0000   -0.0000    0.0000 O   0  0  0  0  0  0  0  0  0  0  0  0
   -0.0000    2.4307    0.0000 O   0  0  0  0  0  0  0  0  0  0  0  0
    5.1531    2.1282    0.0000 O   0  0  0  0  0  0  0  0  0  0  0  0
    4.6642   -0.4872    0.0000 O   0  0  0  0  0  0  0  0  0  0  0  0
    5.1531    0.3024    0.0000 C   0  0  0  0  0  0  0  0  0  0  0  0
    5.3237    1.2153    0.0000 C   0  0  0  0  0  0  0  0  0  0  0  0
   -0.2887    1.6374    0.0000 C   0  0  0  0  0  0  0  0  0  0  0  0
   -0.2887    0.7933    0.0000 C   0  0  0  0  0  0  0  0  0  0  0  0
  1  2  1  0
  1  3  1  0
  2  4  1  0
  3  5  1  0
  4  7  1  0
  5  6  1  0
  7  8  1  0
  9  6  1  1
  9 13  1  0
  9 16  1  0
 10  8  1  1
 10 11  1  0
 10 18  1  0
 11 12  1  0
 12 23  1  0
 13 14  1  0
 14 15  1  0
 15 22  1  0
 16 17  1  0
 17 21  1  0
 18 19  1  0
 19 20  1  0
 21 26  1  0
 23 24  1  0
 24 25  1  0
 25 22  1  0
 26 27  1  0
 27 20  1  0
M  END
>  <logK_Eu_z=3.0_T=25_I=1.0>  (207) 
10.5

$$$$
***** CO3.MOL2
     RDKit          2D

  4  3  0  0  0  0  0  0  0  0999 V2000
   -0.0000    1.0000    0.0000 C   0  0  0  0  0  0  0  0  0  0  0  0
    0.8660    1.5000    0.0000 O   0  0  0  0  0  0  0  0  0  0  0  0
   -0.8660    1.5000    0.0000 O   0  0  0  0  0  0  0  0  0  0  0  0
   -0.0000   -0.0000    0.0000 O   0  0  0  0  0  0  0  0  0  0  0  0
  1  2  1  0
  1  3  1  0
  1  4  1  0
M  END
>  <logK_Eu_z=3.0_T=25_I=1.0>  (208) 
8.0

$$$$
***** CHROMOTROPE_8B.MOL2
     RDKit          2D

 36 39  0  0  0  0  0  0  0  0999 V2000
   -3.0000   -1.0000    0.0000 C   0  0  0  0  0  0  0  0  0  0  0  0
   -2.5000   -1.8660    0.0000 C   0  0  0  0  0  0  0  0  0  0  0  0
   -4.0000   -1.0000    0.0000 C   0  0  0  0  0  0  0  0  0  0  0  0
   -4.5000   -1.8660    0.0000 C   0  0  0  0  0  0  0  0  0  0  0  0
   -4.0000   -2.7321    0.0000 C   0  0  0  0  0  0  0  0  0  0  0  0
   -3.0000   -2.7321    0.0000 C   0  0  0  0  0  0  0  0  0  0  0  0
   -2.5000   -0.1340    0.0000 C   0  0  0  0  0  0  0  0  0  0  0  0
   -1.5000   -0.1340    0.0000 C   0  0  0  0  0  0  0  0  0  0  0  0
   -1.0000   -1.0000    0.0000 C   0  0  0  0  0  0  0  0  0  0  0  0
   -1.5000   -1.8660    0.0000 C   0  0  0  0  0  0  0  0  0  0  0  0
   -0.0000   -1.0000    0.0000 S   0  0  0  0  0  0  0  0  0  0  0  0
   -4.5000   -3.5981    0.0000 S   0  0  0  0  0  0  0  0  0  0  0  0
    0.0000   -2.0000    0.0000 O   0  0  0  0  0  0  0  0  0  0  0  0
   -5.3660   -3.0981    0.0000 O   0  0  0  0  0  0  0  0  0  0  0  0
   -4.5000   -0.1340    0.0000 O   0  0  0  0  0  0  0  0  0  0  0  0
   -3.0000    0.7321    0.0000 O   0  0  0  0  0  0  0  0  0  0  0  0
   -5.0000   -4.4641    0.0000 O   0  0  0  0  0  0  0  0  0  0  0  0
   -3.6340   -4.0981    0.0000 O   0  0  0  0  0  0  0  0  0  0  0  0
    1.0000   -1.0000    0.0000 O   0  0  0  0  0  0  0  0  0  0  0  0
    0.0000   -0.0000    0.0000 O   0  0  0  0  0  0  0  0  0  0  0  0
   -5.5000   -1.8660    0.0000 N   0  0  0  0  0  0  0  0  0  0  0  0
   -6.0000   -1.0000    0.0000 N   0  0  0  0  0  0  0  0  0  0  0  0
   -7.0000   -1.0000    0.0000 C   0  0  0  0  0  0  0  0  0  0  0  0
   -7.5000   -0.1340    0.0000 C   0  0  0  0  0  0  0  0  0  0  0  0
   -8.5000   -0.1340    0.0000 C   0  0  0  0  0  0  0  0  0  0  0  0
   -9.0000   -1.0000    0.0000 C   0  0  0  0  0  0  0  0  0  0  0  0
   -8.5000   -1.8660    0.0000 C   0  0  0  0  0  0  0  0  0  0  0  0
   -7.5000   -1.8660    0.0000 C   0  0  0  0  0  0  0  0  0  0  0  0
   -9.0000    0.7321    0.0000 C   0  0  0  0  0  0  0  0  0  0  0  0
   -7.0000    0.7321    0.0000 C   0  0  0  0  0  0  0  0  0  0  0  0
   -8.5000    1.5981    0.0000 C   0  0  0  0  0  0  0  0  0  0  0  0
   -7.5000    1.5981    0.0000 C   0  0  0  0  0  0  0  0  0  0  0  0
  -10.0000   -1.0000    0.0000 S   0  0  0  0  0  0  0  0  0  0  0  0
  -10.0000   -2.0000    0.0000 O   0  0  0  0  0  0  0  0  0  0  0  0
  -11.0000   -1.0000    0.0000 O   0  0  0  0  0  0  0  0  0  0  0  0
  -10.0000    0.0000    0.0000 O   0  0  0  0  0  0  0  0  0  0  0  0
  1  2  2  0
  2  6  1  0
  2 10  1  0
  3  4  2  0
  3  1  1  0
  3 15  1  0
  4  5  1  0
  4 21  1  0
  5  6  2  0
  5 12  1  0
  7  8  2  0
  7  1  1  0
  7 16  1  0
  9 10  2  0
  9  8  1  0
  9 11  1  0
 11 13  1  0
 11 19  2  0
 11 20  2  0
 12 14  1  0
 12 17  2  0
 12 18  2  0
 21 22  2  0
 22 23  1  0
 23 24  2  0
 24 30  1  0
 24 25  1  0
 25 26  2  0
 25 29  1  0
 26 27  1  0
 26 33  1  0
 27 28  2  0
 28 23  1  0
 29 31  2  0
 31 32  1  0
 32 30  2  0
 33 34  1  0
 33 35  2  0
 33 36  2  0
M  END
>  <logK_Eu_z=3.0_T=25_I=1.0>  (209) 
6.05

$$$$
***** CEOEATA.MOL2
     RDKit          2D

 24 23  0  0  0  0  0  0  0  0999 V2000
    3.4641   -3.0000    0.0000 C   0  0  0  0  0  0  0  0  0  0  0  0
    4.3301   -2.5000    0.0000 C   0  0  0  0  0  0  0  0  0  0  0  0
    1.7321   -3.0000    0.0000 C   0  0  0  0  0  0  0  0  0  0  0  0
    0.8660   -2.5000    0.0000 C   0  0  0  0  0  0  0  0  0  0  0  0
    2.5981   -2.5000    0.0000 O   0  0  0  0  0  0  0  0  0  0  0  0
    5.1962   -3.0000    0.0000 N   0  0  0  0  0  0  0  0  0  0  0  0
    0.0000   -3.0000    0.0000 N   0  0  0  0  0  0  0  0  0  0  0  0
    5.1962   -4.0000    0.0000 C   0  0  0  0  0  0  0  0  0  0  0  0
    4.3301   -4.5000    0.0000 C   0  0  0  0  0  0  0  0  0  0  0  0
    6.0622   -2.5000    0.0000 C   0  0  0  0  0  0  0  0  0  0  0  0
    6.9282   -3.0000    0.0000 C   0  0  0  0  0  0  0  0  0  0  0  0
   -0.8660   -2.5000    0.0000 C   0  0  0  0  0  0  0  0  0  0  0  0
   -0.8660   -1.5000    0.0000 C   0  0  0  0  0  0  0  0  0  0  0  0
    0.0000   -4.0000    0.0000 C   0  0  0  0  0  0  0  0  0  0  0  0
    0.8660   -4.5000    0.0000 C   0  0  0  0  0  0  0  0  0  0  0  0
    0.0000   -1.0000    0.0000 C   0  0  0  0  0  0  0  0  0  0  0  0
    3.4641   -4.0000    0.0000 O   0  0  0  0  0  0  0  0  0  0  0  0
    6.9282   -4.0000    0.0000 O   0  0  0  0  0  0  0  0  0  0  0  0
    1.7321   -4.0000    0.0000 O   0  0  0  0  0  0  0  0  0  0  0  0
    0.8660   -1.5000    0.0000 O   0  0  0  0  0  0  0  0  0  0  0  0
    4.3301   -5.5000    0.0000 O   0  0  0  0  0  0  0  0  0  0  0  0
    7.7942   -2.5000    0.0000 O   0  0  0  0  0  0  0  0  0  0  0  0
    0.8660   -5.5000    0.0000 O   0  0  0  0  0  0  0  0  0  0  0  0
    0.0000    0.0000    0.0000 O   0  0  0  0  0  0  0  0  0  0  0  0
  1  2  1  0
  1  5  1  0
  2  6  1  0
  3  4  1  0
  3  5  1  0
  4  7  1  0
  6  8  1  0
  6 10  1  0
  7 12  1  0
  7 14  1  0
  8  9  1  0
  9 17  2  0
  9 21  1  0
 10 11  1  0
 11 18  2  0
 11 22  1  0
 12 13  1  0
 13 16  1  0
 14 15  1  0
 15 19  2  0
 15 23  1  0
 16 20  2  0
 16 24  1  0
M  END
>  <logK_Eu_z=3.0_T=25_I=1.0>  (210) 
15.28

$$$$
CEDIADA_1.MOL2
     RDKit          2D

 24 24  0  0  1  0  0  0  0  0999 V2000
    0.8459    0.4884    0.0000 C   0  0  0  0  0  0  0  0  0  0  0  0
    1.6918    0.0000    0.0000 C   0  0  0  0  0  0  0  0  0  0  0  0
    1.6918   -0.9767    0.0000 C   0  0  0  0  0  0  0  0  0  0  0  0
    0.8459   -1.4651    0.0000 C   0  0  0  0  0  0  0  0  0  0  0  0
    0.0000   -0.9767    0.0000 C   0  0  0  0  0  0  0  0  0  0  0  0
    0.0000   -0.0000    0.0000 C   0  0  0  0  0  0  0  0  0  0  0  0
    3.6453    0.0000    0.0000 N   0  0  0  0  0  0  0  0  0  0  0  0
    1.3343    1.3343    0.0000 N   0  0  0  0  0  0  0  0  0  0  0  0
    4.1336    0.8459    0.0000 C   0  0  0  0  0  0  0  0  0  0  0  0
    4.1336   -0.8459    0.0000 C   0  0  0  0  0  0  0  0  0  0  0  0
    5.1104   -0.8459    0.0000 C   0  0  0  0  0  0  0  0  0  0  0  0
    5.5987   -1.6918    0.0000 C   0  0  0  0  0  0  0  0  0  0  0  0
    2.3110    1.3343    0.0000 C   0  0  0  0  0  0  0  0  0  0  0  0
    0.8459    2.1801    0.0000 C   0  0  0  0  0  0  0  0  0  0  0  0
   -0.1309    2.1801    0.0000 C   0  0  0  0  0  0  0  0  0  0  0  0
   -0.6192    3.0260    0.0000 C   0  0  0  0  0  0  0  0  0  0  0  0
    2.7994    0.4884    0.0000 O   0  0  0  0  0  0  0  0  0  0  0  0
    3.6453    1.6918    0.0000 O   0  0  0  0  0  0  0  0  0  0  0  0
    5.1104   -2.5377    0.0000 O   0  0  0  0  0  0  0  0  0  0  0  0
   -0.1309    3.8719    0.0000 O   0  0  0  0  0  0  0  0  0  0  0  0
    5.1104    0.8459    0.0000 O   0  0  0  0  0  0  0  0  0  0  0  0
    2.7994    2.1801    0.0000 O   0  0  0  0  0  0  0  0  0  0  0  0
    6.5755   -1.6918    0.0000 O   0  0  0  0  0  0  0  0  0  0  0  0
   -1.5960    3.0260    0.0000 O   0  0  0  0  0  0  0  0  0  0  0  0
  1  2  1  0
  1  6  1  0
  1  8  1  1
  2  3  1  0
  2  7  1  6
  3  4  1  0
  4  5  1  0
  5  6  1  0
  7  9  1  0
  7 10  1  0
  8 13  1  0
  8 14  1  0
  9 18  2  0
  9 21  1  0
 10 11  1  0
 11 12  1  0
 12 19  2  0
 12 23  1  0
 13 17  2  0
 13 22  1  0
 14 15  1  0
 15 16  1  0
 16 20  2  0
 16 24  1  0
M  END
>  <logK_Eu_z=3.0_T=25_I=1.0>  (211) 
13.83

$$$$
***** CEDIADA_0.MOL2
     RDKit          2D

 22 22  0  0  1  0  0  0  0  0999 V2000
    0.0000   -0.0000    0.0000 C   0  0  0  0  0  0  0  0  0  0  0  0
   -0.8426   -0.4865    0.0000 C   0  0  0  0  0  0  0  0  0  0  0  0
   -1.6852   -0.0000    0.0000 C   0  0  0  0  0  0  0  0  0  0  0  0
   -1.6852    0.9730    0.0000 C   0  0  0  0  0  0  0  0  0  0  0  0
   -0.8426    1.4595    0.0000 C   0  0  0  0  0  0  0  0  0  0  0  0
   -0.0000    0.9730    0.0000 C   0  0  0  0  0  0  0  0  0  0  0  0
   -1.8156   -2.1717    0.0000 N   0  0  0  0  0  0  0  0  0  0  0  0
    0.4865   -0.8426    0.0000 N   0  0  0  0  0  0  0  0  0  0  0  0
   -2.7886   -2.1717    0.0000 C   0  0  0  0  0  0  0  0  0  0  0  0
   -1.3291   -3.0143    0.0000 C   0  0  0  0  0  0  0  0  0  0  0  0
   -3.2751   -3.0143    0.0000 C   0  0  0  0  0  0  0  0  0  0  0  0
   -0.0000   -1.6852    0.0000 C   0  0  0  0  0  0  0  0  0  0  0  0
    1.4595   -0.8426    0.0000 C   0  0  0  0  0  0  0  0  0  0  0  0
    1.9459   -1.6852    0.0000 C   0  0  0  0  0  0  0  0  0  0  0  0
   -1.8156   -3.8570    0.0000 O   0  0  0  0  0  0  0  0  0  0  0  0
   -2.7886   -3.8570    0.0000 O   0  0  0  0  0  0  0  0  0  0  0  0
   -0.9730   -1.6852    0.0000 O   0  0  0  0  0  0  0  0  0  0  0  0
    1.4595   -2.5279    0.0000 O   0  0  0  0  0  0  0  0  0  0  0  0
   -0.3561   -3.0143    0.0000 O   0  0  0  0  0  0  0  0  0  0  0  0
   -4.2480   -3.0143    0.0000 O   0  0  0  0  0  0  0  0  0  0  0  0
    0.4865   -2.5279    0.0000 O   0  0  0  0  0  0  0  0  0  0  0  0
    2.9189   -1.6852    0.0000 O   0  0  0  0  0  0  0  0  0  0  0  0
  1  2  1  0
  1  8  1  1
  2  3  1  0
  2  7  1  1
  3  4  1  0
  4  5  1  0
  5  6  1  0
  6  1  1  0
  7  9  1  0
  7 10  1  0
  8 12  1  0
  8 13  1  0
  9 11  1  0
 10 15  2  0
 10 19  1  0
 11 16  2  0
 11 20  1  0
 12 17  2  0
 12 21  1  0
 13 14  1  0
 14 18  2  0
 14 22  1  0
M  END
>  <logK_Eu_z=3.0_T=25_I=1.0>  (212) 
15.67

$$$$
***** CDTA.MOL2
     RDKit          2D

 24 24  0  0  1  0  0  0  0  0999 V2000
    0.8267   -1.4318    0.0000 C   0  0  0  0  0  0  0  0  0  0  0  0
   -0.0000   -0.9545    0.0000 C   0  0  0  0  0  0  0  0  0  0  0  0
   -0.0000   -0.0000    0.0000 C   0  0  0  0  0  0  0  0  0  0  0  0
    1.6533   -0.9545    0.0000 C   0  0  0  0  0  0  0  0  0  0  0  0
    1.6533   -0.0000    0.0000 C   0  0  0  0  0  0  0  0  0  0  0  0
    0.8267    0.4773    0.0000 C   0  0  0  0  0  0  0  0  0  0  0  0
   -1.9091   -0.9545    0.0000 N   0  0  0  0  0  0  0  0  0  0  0  0
   -0.1279   -3.0851    0.0000 N   0  0  0  0  0  0  0  0  0  0  0  0
   -2.3864   -0.1279    0.0000 C   0  0  0  0  0  0  0  0  0  0  0  0
   -1.9091    0.6988    0.0000 C   0  0  0  0  0  0  0  0  0  0  0  0
   -2.3864   -1.7812    0.0000 C   0  0  0  0  0  0  0  0  0  0  0  0
   -3.3409   -1.7812    0.0000 C   0  0  0  0  0  0  0  0  0  0  0  0
    0.3494   -3.9118    0.0000 C   0  0  0  0  0  0  0  0  0  0  0  0
    1.3039   -3.9118    0.0000 C   0  0  0  0  0  0  0  0  0  0  0  0
   -1.0824   -3.0851    0.0000 C   0  0  0  0  0  0  0  0  0  0  0  0
   -1.5597   -3.9118    0.0000 C   0  0  0  0  0  0  0  0  0  0  0  0
   -0.9545    0.6988    0.0000 O   0  0  0  0  0  0  0  0  0  0  0  0
   -3.8182   -0.9545    0.0000 O   0  0  0  0  0  0  0  0  0  0  0  0
    1.7812   -3.0851    0.0000 O   0  0  0  0  0  0  0  0  0  0  0  0
   -1.0824   -4.7385    0.0000 O   0  0  0  0  0  0  0  0  0  0  0  0
   -2.3864    1.5254    0.0000 O   0  0  0  0  0  0  0  0  0  0  0  0
   -3.8182   -2.6079    0.0000 O   0  0  0  0  0  0  0  0  0  0  0  0
    1.7812   -4.7385    0.0000 O   0  0  0  0  0  0  0  0  0  0  0  0
   -2.5142   -3.9118    0.0000 O   0  0  0  0  0  0  0  0  0  0  0  0
  1  2  1  0
  1  4  1  0
  1  8  1  6
  2  3  1  0
  2  7  1  6
  4  5  1  0
  5  6  1  0
  6  3  1  0
  7  9  1  0
  7 11  1  0
  8 13  1  0
  8 15  1  0
  9 10  1  0
 10 17  2  0
 10 21  1  0
 11 12  1  0
 12 18  2  0
 12 22  1  0
 13 14  1  0
 14 19  2  0
 14 23  1  0
 15 16  1  0
 16 20  2  0
 16 24  1  0
M  END
>  <logK_Eu_z=3.0_T=25_I=1.0>  (213) 
19.49

$$$$
***** C5-HEMI-BTP.MOL2
     RDKit          2D

 28 30  0  0  0  0  0  0  0  0999 V2000
    6.8127   -0.9833    0.0000 C   0  0  0  0  0  0  0  0  0  0  0  0
    5.9611   -1.4750    0.0000 C   0  0  0  0  0  0  0  0  0  0  0  0
    5.1095   -0.9833    0.0000 C   0  0  0  0  0  0  0  0  0  0  0  0
    6.8127   -0.0000    0.0000 C   0  0  0  0  0  0  0  0  0  0  0  0
    5.9611    0.4917    0.0000 C   0  0  0  0  0  0  0  0  0  0  0  0
    5.1095   -0.0000    0.0000 N   0  0  0  0  0  0  0  0  0  0  0  0
    4.2580   -1.4750    0.0000 C   0  0  0  0  0  0  0  0  0  0  0  0
    4.2580   -2.4583    0.0000 C   0  0  0  0  0  0  0  0  0  0  0  0
    3.4064   -2.9500    0.0000 C   0  0  0  0  0  0  0  0  0  0  0  0
    3.4064   -0.9833    0.0000 N   0  0  0  0  0  0  0  0  0  0  0  0
    2.5548   -2.4583    0.0000 C   0  0  0  0  0  0  0  0  0  0  0  0
    2.5548   -1.4750    0.0000 C   0  0  0  0  0  0  0  0  0  0  0  0
    1.7032   -0.9833    0.0000 C   0  0  0  0  0  0  0  0  0  0  0  0
    1.7032   -0.0000    0.0000 N   0  0  0  0  0  0  0  0  0  0  0  0
    0.8516   -1.4750    0.0000 N   0  0  0  0  0  0  0  0  0  0  0  0
    0.0000   -0.9833    0.0000 N   0  0  0  0  0  0  0  0  0  0  0  0
    0.0000   -0.0000    0.0000 C   0  0  0  0  0  0  0  0  0  0  0  0
    0.8516    0.4917    0.0000 C   0  0  0  0  0  0  0  0  0  0  0  0
    0.8516    2.4583    0.0000 C   0  0  0  0  0  0  0  0  0  0  0  0
    1.7032    2.9500    0.0000 C   0  0  0  0  0  0  0  0  0  0  0  0
    1.7032    3.9333    0.0000 C   0  0  0  0  0  0  0  0  0  0  0  0
    0.8516    4.4250    0.0000 C   0  0  0  0  0  0  0  0  0  0  0  0
    0.0000    3.9333    0.0000 C   0  0  0  0  0  0  0  0  0  0  0  0
   -0.8516    0.4917    0.0000 C   0  0  0  0  0  0  0  0  0  0  0  0
   -1.7032   -0.0000    0.0000 C   0  0  0  0  0  0  0  0  0  0  0  0
   -2.5548    0.4917    0.0000 C   0  0  0  0  0  0  0  0  0  0  0  0
   -3.4064   -0.0000    0.0000 C   0  0  0  0  0  0  0  0  0  0  0  0
   -3.4064   -0.9833    0.0000 C   0  0  0  0  0  0  0  0  0  0  0  0
  1  2  2  0
  1  4  1  0
  2  3  1  0
  3  6  2  0
  3  7  1  0
  4  5  2  0
  5  6  1  0
  7  8  2  0
  7 10  1  0
  8  9  1  0
  9 11  2  0
 10 12  2  0
 11 12  1  0
 12 13  1  0
 13 14  2  0
 13 15  1  0
 14 18  1  0
 15 16  2  0
 16 17  1  0
 17 24  1  0
 18 17  2  0
 18 19  1  0
 19 20  1  0
 20 21  1  0
 21 22  1  0
 22 23  1  0
 24 25  1  0
 25 26  1  0
 26 27  1  0
 27 28  1  0
M  END
>  <logK_Eu_z=3.0_T=25_I=1.0>  (214) 
3.6

$$$$
***** C5-BTBP.MOL2
     RDKit          2D

 44 47  0  0  0  0  0  0  0  0999 V2000
   -5.0912    0.9798    0.0000 C   0  0  0  0  0  0  0  0  0  0  0  0
   -4.2426    1.4697    0.0000 C   0  0  0  0  0  0  0  0  0  0  0  0
   -5.0912    0.0000    0.0000 C   0  0  0  0  0  0  0  0  0  0  0  0
   -3.3941    0.9798    0.0000 N   0  0  0  0  0  0  0  0  0  0  0  0
   -5.9397    1.4697    0.0000 N   0  0  0  0  0  0  0  0  0  0  0  0
   -4.2426    2.4495    0.0000 C   0  0  0  0  0  0  0  0  0  0  0  0
   -5.9397   -0.4899    0.0000 C   0  0  0  0  0  0  0  0  0  0  0  0
   -3.3941    2.9394    0.0000 C   0  0  0  0  0  0  0  0  0  0  0  0
   -6.7882    0.0000    0.0000 C   0  0  0  0  0  0  0  0  0  0  0  0
   -2.5456    2.4495    0.0000 C   0  0  0  0  0  0  0  0  0  0  0  0
   -2.5456    1.4697    0.0000 C   0  0  0  0  0  0  0  0  0  0  0  0
   -6.7882    0.9798    0.0000 C   0  0  0  0  0  0  0  0  0  0  0  0
   -7.6368    1.4697    0.0000 C   0  0  0  0  0  0  0  0  0  0  0  0
   -1.6971    0.9798    0.0000 C   0  0  0  0  0  0  0  0  0  0  0  0
   -0.8485    1.4697    0.0000 N   0  0  0  0  0  0  0  0  0  0  0  0
   -7.6368    2.4495    0.0000 N   0  0  0  0  0  0  0  0  0  0  0  0
   -8.4853    2.9394    0.0000 N   0  0  0  0  0  0  0  0  0  0  0  0
   -8.4853    0.9798    0.0000 N   0  0  0  0  0  0  0  0  0  0  0  0
   -1.6971    0.0000    0.0000 N   0  0  0  0  0  0  0  0  0  0  0  0
   -0.8485   -0.4899    0.0000 N   0  0  0  0  0  0  0  0  0  0  0  0
   -9.3338    1.4697    0.0000 C   0  0  0  0  0  0  0  0  0  0  0  0
   -9.3338    2.4495    0.0000 C   0  0  0  0  0  0  0  0  0  0  0  0
    0.0000   -0.0000    0.0000 C   0  0  0  0  0  0  0  0  0  0  0  0
    0.0000    0.9798    0.0000 C   0  0  0  0  0  0  0  0  0  0  0  0
  -11.0309    0.4899    0.0000 C   0  0  0  0  0  0  0  0  0  0  0  0
  -11.0309   -0.4899    0.0000 C   0  0  0  0  0  0  0  0  0  0  0  0
  -11.8794   -0.9798    0.0000 C   0  0  0  0  0  0  0  0  0  0  0  0
  -11.8794   -1.9596    0.0000 C   0  0  0  0  0  0  0  0  0  0  0  0
  -11.0309   -2.4495    0.0000 C   0  0  0  0  0  0  0  0  0  0  0  0
  -10.1824    2.9394    0.0000 C   0  0  0  0  0  0  0  0  0  0  0  0
  -10.1824    3.9192    0.0000 C   0  0  0  0  0  0  0  0  0  0  0  0
  -11.0309    4.4091    0.0000 C   0  0  0  0  0  0  0  0  0  0  0  0
  -11.8794    3.9192    0.0000 C   0  0  0  0  0  0  0  0  0  0  0  0
  -11.8794    2.9394    0.0000 C   0  0  0  0  0  0  0  0  0  0  0  0
    1.6971    1.9596    0.0000 C   0  0  0  0  0  0  0  0  0  0  0  0
    1.6971    2.9394    0.0000 C   0  0  0  0  0  0  0  0  0  0  0  0
    2.5456    3.4293    0.0000 C   0  0  0  0  0  0  0  0  0  0  0  0
    3.3941    2.9394    0.0000 C   0  0  0  0  0  0  0  0  0  0  0  0
    3.3941    1.9596    0.0000 C   0  0  0  0  0  0  0  0  0  0  0  0
    0.8485   -0.4899    0.0000 C   0  0  0  0  0  0  0  0  0  0  0  0
    0.8485   -1.4697    0.0000 C   0  0  0  0  0  0  0  0  0  0  0  0
    1.6971   -1.9596    0.0000 C   0  0  0  0  0  0  0  0  0  0  0  0
    1.6971   -2.9394    0.0000 C   0  0  0  0  0  0  0  0  0  0  0  0
    0.8485   -3.4293    0.0000 C   0  0  0  0  0  0  0  0  0  0  0  0
  1  2  1  0
  1  3  2  0
  1  5  1  0
  2  4  2  0
  2  6  1  0
  3  7  1  0
  4 11  1  0
  5 12  2  0
  6  8  2  0
  7  9  2  0
  8 10  1  0
  9 12  1  0
 10 11  2  0
 11 14  1  0
 12 13  1  0
 13 16  2  0
 13 18  1  0
 14 15  2  0
 14 19  1  0
 15 24  1  0
 16 17  1  0
 17 22  2  0
 18 21  2  0
 19 20  2  0
 20 23  1  0
 21 22  1  0
 21 25  1  0
 22 30  1  0
 23 40  1  0
 24 23  2  0
 24 35  1  0
 25 26  1  0
 26 27  1  0
 27 28  1  0
 28 29  1  0
 30 31  1  0
 31 32  1  0
 32 33  1  0
 33 34  1  0
 35 36  1  0
 36 37  1  0
 37 38  1  0
 38 39  1  0
 40 41  1  0
 41 42  1  0
 42 43  1  0
 43 44  1  0
M  END
>  <logK_Eu_z=3.0_T=25_I=1.0>  (215) 
5.7

$$$$
***** BQPHEN.MOL2
     RDKit          2D

 34 40  0  0  0  0  0  0  0  0999 V2000
   -2.5981   -6.5000    0.0000 C   0  0  0  0  0  0  0  0  0  0  0  0
   -1.7321   -6.0000    0.0000 C   0  0  0  0  0  0  0  0  0  0  0  0
   -0.8660   -7.5000    0.0000 C   0  0  0  0  0  0  0  0  0  0  0  0
   -0.8660   -6.5000    0.0000 C   0  0  0  0  0  0  0  0  0  0  0  0
   -1.7321   -8.0000    0.0000 C   0  0  0  0  0  0  0  0  0  0  0  0
   -2.5981   -7.5000    0.0000 C   0  0  0  0  0  0  0  0  0  0  0  0
   -0.0000   -6.0000    0.0000 C   0  0  0  0  0  0  0  0  0  0  0  0
   -3.4641   -8.0000    0.0000 C   0  0  0  0  0  0  0  0  0  0  0  0
   -0.0000   -5.0000    0.0000 C   0  0  0  0  0  0  0  0  0  0  0  0
   -4.3301   -7.5000    0.0000 C   0  0  0  0  0  0  0  0  0  0  0  0
   -0.8660   -4.5000    0.0000 C   0  0  0  0  0  0  0  0  0  0  0  0
   -4.3301   -6.5000    0.0000 C   0  0  0  0  0  0  0  0  0  0  0  0
   -3.4641   -6.0000    0.0000 N   0  0  0  0  0  0  0  0  0  0  0  0
   -1.7321   -5.0000    0.0000 N   0  0  0  0  0  0  0  0  0  0  0  0
   -0.8660   -3.5000    0.0000 C   0  0  0  0  0  0  0  0  0  0  0  0
   -5.1962   -6.0000    0.0000 C   0  0  0  0  0  0  0  0  0  0  0  0
   -1.7321   -3.0000    0.0000 N   0  0  0  0  0  0  0  0  0  0  0  0
   -6.0622   -6.5000    0.0000 N   0  0  0  0  0  0  0  0  0  0  0  0
   -0.0000   -3.0000    0.0000 N   0  0  0  0  0  0  0  0  0  0  0  0
   -5.1962   -5.0000    0.0000 N   0  0  0  0  0  0  0  0  0  0  0  0
   -6.9282   -6.0000    0.0000 C   0  0  0  0  0  0  0  0  0  0  0  0
   -1.7321   -2.0000    0.0000 C   0  0  0  0  0  0  0  0  0  0  0  0
   -6.0622   -4.5000    0.0000 C   0  0  0  0  0  0  0  0  0  0  0  0
   -6.9282   -5.0000    0.0000 C   0  0  0  0  0  0  0  0  0  0  0  0
   -0.8660   -1.5000    0.0000 C   0  0  0  0  0  0  0  0  0  0  0  0
   -0.0000   -2.0000    0.0000 C   0  0  0  0  0  0  0  0  0  0  0  0
   -6.0622   -3.5000    0.0000 C   0  0  0  0  0  0  0  0  0  0  0  0
   -7.7942   -4.5000    0.0000 C   0  0  0  0  0  0  0  0  0  0  0  0
   -0.8660   -0.5000    0.0000 C   0  0  0  0  0  0  0  0  0  0  0  0
    0.8660   -1.5000    0.0000 C   0  0  0  0  0  0  0  0  0  0  0  0
   -6.9282   -3.0000    0.0000 C   0  0  0  0  0  0  0  0  0  0  0  0
   -7.7942   -3.5000    0.0000 C   0  0  0  0  0  0  0  0  0  0  0  0
    0.0000    0.0000    0.0000 C   0  0  0  0  0  0  0  0  0  0  0  0
    0.8660   -0.5000    0.0000 C   0  0  0  0  0  0  0  0  0  0  0  0
  1  2  2  0
  1  6  1  0
  1 13  1  0
  2 14  1  0
  3  4  2  0
  4  2  1  0
  4  7  1  0
  5  6  2  0
  5  3  1  0
  6  8  1  0
  7  9  2  0
  8 10  2  0
  9 11  1  0
 10 12  1  0
 11 14  2  0
 11 15  1  0
 12 13  2  0
 12 16  1  0
 15 17  2  0
 15 19  1  0
 16 18  2  0
 16 20  1  0
 17 22  1  0
 18 21  1  0
 19 26  2  0
 20 23  2  0
 21 24  2  0
 22 25  2  0
 23 27  1  0
 24 23  1  0
 24 28  1  0
 25 29  1  0
 26 25  1  0
 26 30  1  0
 27 31  2  0
 28 32  2  0
 29 33  2  0
 30 34  2  0
 31 32  1  0
 34 33  1  0
M  END
>  <logK_Eu_z=3.0_T=25_I=1.0>  (216) 
7.26

$$$$
***** BIDA.MOL2
     RDKit          2D

 13 12  0  0  0  0  0  0  0  0999 V2000
    2.5981   -1.5000    0.0000 C   0  0  0  0  0  0  0  0  0  0  0  0
    1.7321   -2.0000    0.0000 C   0  0  0  0  0  0  0  0  0  0  0  0
    3.4641    0.0000    0.0000 C   0  0  0  0  0  0  0  0  0  0  0  0
    3.4641    1.0000    0.0000 C   0  0  0  0  0  0  0  0  0  0  0  0
    1.7321   -3.0000    0.0000 O   0  0  0  0  0  0  0  0  0  0  0  0
    2.5981    1.5000    0.0000 O   0  0  0  0  0  0  0  0  0  0  0  0
    0.8660   -1.5000    0.0000 O   0  0  0  0  0  0  0  0  0  0  0  0
    4.3301    1.5000    0.0000 O   0  0  0  0  0  0  0  0  0  0  0  0
    2.5981   -0.5000    0.0000 N   0  0  0  0  0  0  0  0  0  0  0  0
    1.7321    0.0000    0.0000 C   0  0  0  0  0  0  0  0  0  0  0  0
    1.7321    1.0000    0.0000 C   0  0  0  0  0  0  0  0  0  0  0  0
    0.8660    1.5000    0.0000 C   0  0  0  0  0  0  0  0  0  0  0  0
   -0.0000    1.0000    0.0000 C   0  0  0  0  0  0  0  0  0  0  0  0
  1  2  1  0
  1  9  1  0
  2  5  2  0
  2  7  1  0
  3  4  1  0
  3  9  1  0
  4  6  2  0
  4  8  1  0
  9 10  1  0
 10 11  1  0
 11 12  1  0
 12 13  1  0
M  END
>  <logK_Eu_z=3.0_T=25_I=1.0>  (217) 
6.8

$$$$
***** BHE-ALAN.MOL2
     RDKit          2D

 12 11  0  0  1  0  0  0  0  0999 V2000
   -0.8327    1.4423    0.0000 C   0  0  0  0  0  0  0  0  0  0  0  0
   -0.8327    2.4038    0.0000 C   0  0  0  0  0  0  0  0  0  0  0  0
   -2.7558    1.4423    0.0000 N   0  0  0  0  0  0  0  0  0  0  0  0
   -3.2366    0.6096    0.0000 C   0  0  0  0  0  0  0  0  0  0  0  0
   -2.7558   -0.2231    0.0000 C   0  0  0  0  0  0  0  0  0  0  0  0
   -3.2366    2.2750    0.0000 C   0  0  0  0  0  0  0  0  0  0  0  0
   -4.1981    2.2750    0.0000 C   0  0  0  0  0  0  0  0  0  0  0  0
   -0.0000    2.8846    0.0000 O   0  0  0  0  0  0  0  0  0  0  0  0
   -1.7943   -0.2231    0.0000 O   0  0  0  0  0  0  0  0  0  0  0  0
   -4.6789    1.4423    0.0000 O   0  0  0  0  0  0  0  0  0  0  0  0
   -1.6654    2.8846    0.0000 O   0  0  0  0  0  0  0  0  0  0  0  0
   -0.8327    0.4808    0.0000 C   0  0  0  0  0  0  0  0  0  0  0  0
  1  2  1  0
  1  3  1  0
  1 12  1  1
  2  8  2  0
  2 11  1  0
  3  4  1  0
  3  6  1  0
  4  5  1  0
  5  9  1  0
  6  7  1  0
  7 10  1  0
M  END
>  <logK_Eu_z=3.0_T=25_I=1.0>  (218) 
5.36

$$$$
***** BB_CAP_AA.MOL2
     RDKit          2D

 30 29  0  0  0  0  0  0  0  0999 V2000
    0.0000   -1.9286    0.0000 N   0  0  0  0  0  0  0  0  0  0  0  0
   -0.9643   -1.9286    0.0000 C   0  0  0  0  0  0  0  0  0  0  0  0
   -1.4464   -2.7637    0.0000 C   0  0  0  0  0  0  0  0  0  0  0  0
   -0.0000   -2.8929    0.0000 C   0  0  0  0  0  0  0  0  0  0  0  0
    1.9286   -1.9286    0.0000 C   0  0  0  0  0  0  0  0  0  0  0  0
    2.4107   -1.0935    0.0000 C   0  0  0  0  0  0  0  0  0  0  0  0
    3.3750   -1.0935    0.0000 C   0  0  0  0  0  0  0  0  0  0  0  0
    0.0000   -0.0000    0.0000 C   0  0  0  0  0  0  0  0  0  0  0  0
   -0.8351    0.4821    0.0000 C   0  0  0  0  0  0  0  0  0  0  0  0
   -0.8351    1.4464    0.0000 C   0  0  0  0  0  0  0  0  0  0  0  0
    3.8571   -0.2584    0.0000 N   0  0  0  0  0  0  0  0  0  0  0  0
   -1.6702    1.9286    0.0000 N   0  0  0  0  0  0  0  0  0  0  0  0
    3.3750    0.5767    0.0000 C   0  0  0  0  0  0  0  0  0  0  0  0
    2.4107    0.5767    0.0000 C   0  0  0  0  0  0  0  0  0  0  0  0
    4.8214   -0.2584    0.0000 C   0  0  0  0  0  0  0  0  0  0  0  0
    5.3036    0.5767    0.0000 C   0  0  0  0  0  0  0  0  0  0  0  0
   -2.5053    1.4464    0.0000 C   0  0  0  0  0  0  0  0  0  0  0  0
   -2.5053    0.4821    0.0000 C   0  0  0  0  0  0  0  0  0  0  0  0
   -1.6702    2.8929    0.0000 C   0  0  0  0  0  0  0  0  0  0  0  0
   -2.5053    3.3750    0.0000 C   0  0  0  0  0  0  0  0  0  0  0  0
   -0.9643   -3.5988    0.0000 O   0  0  0  0  0  0  0  0  0  0  0  0
    1.9286   -0.2584    0.0000 O   0  0  0  0  0  0  0  0  0  0  0  0
    4.8214    1.4118    0.0000 O   0  0  0  0  0  0  0  0  0  0  0  0
   -1.6702   -0.0000    0.0000 O   0  0  0  0  0  0  0  0  0  0  0  0
   -3.3404    2.8929    0.0000 O   0  0  0  0  0  0  0  0  0  0  0  0
    1.9286    1.4118    0.0000 O   0  0  0  0  0  0  0  0  0  0  0  0
    6.2679    0.5767    0.0000 O   0  0  0  0  0  0  0  0  0  0  0  0
   -3.3404    0.0000    0.0000 O   0  0  0  0  0  0  0  0  0  0  0  0
   -2.5053    4.3393    0.0000 O   0  0  0  0  0  0  0  0  0  0  0  0
   -2.4107   -2.7637    0.0000 O   0  0  0  0  0  0  0  0  0  0  0  0
  1  2  1  0
  1  4  1  0
  1  5  1  0
  1  8  1  0
  2  3  1  0
  3 21  2  0
  3 30  1  0
  5  6  1  0
  6  7  1  0
  7 11  1  0
  8  9  1  0
  9 10  1  0
 10 12  1  0
 11 13  1  0
 11 15  1  0
 12 17  1  0
 12 19  1  0
 13 14  1  0
 14 22  2  0
 14 26  1  0
 15 16  1  0
 16 23  2  0
 16 27  1  0
 17 18  1  0
 18 24  2  0
 18 28  1  0
 19 20  1  0
 20 25  2  0
 20 29  1  0
M  CHG  1   1   1
M  END
>  <logK_Eu_z=3.0_T=25_I=1.0>  (219) 
8.9

$$$$
***** BAYA_1.MOL2
     RDKit          2D

 29 30  0  0  0  0  0  0  0  0999 V2000
   -5.8509   -0.4508    0.0000 C   0  0  0  0  0  0  0  0  0  0  0  0
   -5.8509    0.4508    0.0000 C   0  0  0  0  0  0  0  0  0  0  0  0
   -5.0701   -0.9016    0.0000 C   0  0  0  0  0  0  0  0  0  0  0  0
   -4.2893   -0.4508    0.0000 C   0  0  0  0  0  0  0  0  0  0  0  0
   -4.2893    0.4508    0.0000 C   0  0  0  0  0  0  0  0  0  0  0  0
   -5.0701    0.9016    0.0000 C   0  0  0  0  0  0  0  0  0  0  0  0
   -6.6318   -0.9016    0.0000 C   0  0  0  0  0  0  0  0  0  0  0  0
   -3.9225   -1.2745    0.0000 O   0  0  0  0  0  0  0  0  0  0  0  0
   -3.9225    1.2745    0.0000 O   0  0  0  0  0  0  0  0  0  0  0  0
   -7.4126   -0.4508    0.0000 O   0  0  0  0  0  0  0  0  0  0  0  0
   -3.2525   -1.8778    0.0000 C   0  0  0  0  0  0  0  0  0  0  0  0
   -2.3950   -2.1564    0.0000 C   0  0  0  0  0  0  0  0  0  0  0  0
   -3.2525    1.8778    0.0000 C   0  0  0  0  0  0  0  0  0  0  0  0
   -2.3950    2.1564    0.0000 C   0  0  0  0  0  0  0  0  0  0  0  0
   -1.4983   -2.0622    0.0000 N   0  0  0  0  0  0  0  0  0  0  0  0
   -1.4983    2.0622    0.0000 N   0  0  0  0  0  0  0  0  0  0  0  0
   -0.9410   -3.7772    0.0000 C   0  0  0  0  0  0  0  0  0  0  0  0
   -1.5443   -4.4473    0.0000 C   0  0  0  0  0  0  0  0  0  0  0  0
   -0.9410    3.7772    0.0000 C   0  0  0  0  0  0  0  0  0  0  0  0
   -0.0591    3.9647    0.0000 C   0  0  0  0  0  0  0  0  0  0  0  0
   -0.7174   -1.6114    0.0000 C   0  0  0  0  0  0  0  0  0  0  0  0
   -0.1875   -0.8819    0.0000 C   0  0  0  0  0  0  0  0  0  0  0  0
   -0.7174    1.6114    0.0000 C   0  0  0  0  0  0  0  0  0  0  0  0
   -0.1875    0.8819    0.0000 C   0  0  0  0  0  0  0  0  0  0  0  0
    0.0000    0.0000    0.0000 O   0  0  0  0  0  0  0  0  0  0  0  0
    0.5442    3.2946    0.0000 O   0  0  0  0  0  0  0  0  0  0  0  0
   -2.4263   -4.2598    0.0000 O   0  0  0  0  0  0  0  0  0  0  0  0
   -1.2657   -5.3048    0.0000 O   0  0  0  0  0  0  0  0  0  0  0  0
    0.2195    4.8222    0.0000 O   0  0  0  0  0  0  0  0  0  0  0  0
  1  2  2  0
  1  7  1  0
  2  6  1  0
  3  4  2  0
  3  1  1  0
  4  8  1  0
  5  6  2  0
  5  4  1  0
  5  9  1  0
  7 10  2  0
  8 11  1  0
  9 13  1  0
 11 12  1  0
 12 15  1  0
 13 14  1  0
 14 16  1  0
 15 17  1  0
 15 21  1  0
 16 19  1  0
 16 23  1  0
 17 18  1  0
 18 27  2  0
 18 28  1  0
 19 20  1  0
 20 26  1  0
 20 29  2  0
 21 22  1  0
 22 25  1  0
 23 24  1  0
 24 25  1  0
M  END
>  <logK_Eu_z=3.0_T=25_I=1.0>  (220) 
7.47

$$$$
***** B_AEDNTA.MOL2
     RDKit          2D

 24 23  0  0  1  0  0  0  0  0999 V2000
   -2.4432    0.8463    0.0000 C   0  0  0  0  0  0  0  0  0  0  0  0
   -3.4205    0.8463    0.0000 C   0  0  0  0  0  0  0  0  0  0  0  0
   -3.9091    1.6927    0.0000 N   0  0  0  0  0  0  0  0  0  0  0  0
   -2.4432   -1.1082    0.0000 N   0  0  0  0  0  0  0  0  0  0  0  0
   -3.4205    2.5390    0.0000 C   0  0  0  0  0  0  0  0  0  0  0  0
   -2.4432    2.5390    0.0000 C   0  0  0  0  0  0  0  0  0  0  0  0
   -4.8864    1.6927    0.0000 C   0  0  0  0  0  0  0  0  0  0  0  0
   -5.3750    2.5390    0.0000 C   0  0  0  0  0  0  0  0  0  0  0  0
   -3.2895   -1.5968    0.0000 C   0  0  0  0  0  0  0  0  0  0  0  0
   -4.1359   -1.1082    0.0000 C   0  0  0  0  0  0  0  0  0  0  0  0
   -1.5968   -1.5968    0.0000 C   0  0  0  0  0  0  0  0  0  0  0  0
   -1.5968   -2.5741    0.0000 C   0  0  0  0  0  0  0  0  0  0  0  0
   -1.9545    1.6927    0.0000 O   0  0  0  0  0  0  0  0  0  0  0  0
   -4.8864    3.3854    0.0000 O   0  0  0  0  0  0  0  0  0  0  0  0
   -4.1359   -0.1309    0.0000 O   0  0  0  0  0  0  0  0  0  0  0  0
   -2.4432   -3.0627    0.0000 O   0  0  0  0  0  0  0  0  0  0  0  0
   -1.9545    3.3854    0.0000 O   0  0  0  0  0  0  0  0  0  0  0  0
   -6.3523    2.5390    0.0000 O   0  0  0  0  0  0  0  0  0  0  0  0
   -4.9822   -1.5968    0.0000 O   0  0  0  0  0  0  0  0  0  0  0  0
   -0.7505   -3.0627    0.0000 O   0  0  0  0  0  0  0  0  0  0  0  0
   -1.4659    0.8463    0.0000 C   0  0  0  0  0  0  0  0  0  0  0  0
   -0.9773    1.6927    0.0000 C   0  0  0  0  0  0  0  0  0  0  0  0
   -0.0000    1.6927    0.0000 C   0  0  0  0  0  0  0  0  0  0  0  0
    0.4886    0.8463    0.0000 C   0  0  0  0  0  0  0  0  0  0  0  0
  1  2  1  6
  1  4  1  0
  1 21  1  0
  2  3  1  0
  3  5  1  0
  3  7  1  0
  4  9  1  0
  4 11  1  0
  5  6  1  0
  6 13  2  0
  6 17  1  0
  7  8  1  0
  8 14  2  0
  8 18  1  0
  9 10  1  0
 10 15  2  0
 10 19  1  0
 11 12  1  0
 12 16  2  0
 12 20  1  0
 21 22  1  0
 22 23  1  0
 23 24  1  0
M  END
>  <logK_Eu_z=3.0_T=25_I=1.0>  (221) 
18.3

$$$$
***** AEDETA.MOL2
     RDKit          2D

 29 28  0  0  0  0  0  0  0  0999 V2000
   -0.8500    2.4537    0.0000 C   0  0  0  0  0  0  0  0  0  0  0  0
   -0.0000    2.9444    0.0000 C   0  0  0  0  0  0  0  0  0  0  0  0
   -1.7000    4.9074    0.0000 C   0  0  0  0  0  0  0  0  0  0  0  0
   -0.8500    5.3981    0.0000 C   0  0  0  0  0  0  0  0  0  0  0  0
   -1.7000    2.9444    0.0000 N   0  0  0  0  0  0  0  0  0  0  0  0
   -0.8500    6.3796    0.0000 N   0  0  0  0  0  0  0  0  0  0  0  0
    0.8500    2.4537    0.0000 N   0  0  0  0  0  0  0  0  0  0  0  0
   -2.5500    2.4537    0.0000 C   0  0  0  0  0  0  0  0  0  0  0  0
   -3.4000    2.9444    0.0000 C   0  0  0  0  0  0  0  0  0  0  0  0
   -3.4000    3.9259    0.0000 O   0  0  0  0  0  0  0  0  0  0  0  0
   -4.2499    4.4167    0.0000 C   0  0  0  0  0  0  0  0  0  0  0  0
   -5.0999    3.9259    0.0000 C   0  0  0  0  0  0  0  0  0  0  0  0
   -5.0999    2.9444    0.0000 C   0  0  0  0  0  0  0  0  0  0  0  0
   -0.0000    6.8704    0.0000 C   0  0  0  0  0  0  0  0  0  0  0  0
   -1.7000    6.8704    0.0000 C   0  0  0  0  0  0  0  0  0  0  0  0
    0.8500    6.3796    0.0000 C   0  0  0  0  0  0  0  0  0  0  0  0
   -2.5500    6.3796    0.0000 C   0  0  0  0  0  0  0  0  0  0  0  0
    0.8500    1.4722    0.0000 C   0  0  0  0  0  0  0  0  0  0  0  0
   -0.0000    0.9815    0.0000 C   0  0  0  0  0  0  0  0  0  0  0  0
    1.7000    2.9444    0.0000 C   0  0  0  0  0  0  0  0  0  0  0  0
    2.5500    2.4537    0.0000 C   0  0  0  0  0  0  0  0  0  0  0  0
    0.8500    5.3981    0.0000 O   0  0  0  0  0  0  0  0  0  0  0  0
   -2.5500    5.3981    0.0000 O   0  0  0  0  0  0  0  0  0  0  0  0
    2.5500    1.4722    0.0000 O   0  0  0  0  0  0  0  0  0  0  0  0
   -0.8500    1.4722    0.0000 O   0  0  0  0  0  0  0  0  0  0  0  0
    1.7000    6.8704    0.0000 O   0  0  0  0  0  0  0  0  0  0  0  0
   -3.4000    6.8704    0.0000 O   0  0  0  0  0  0  0  0  0  0  0  0
    3.4000    2.9444    0.0000 O   0  0  0  0  0  0  0  0  0  0  0  0
    0.0000    0.0000    0.0000 O   0  0  0  0  0  0  0  0  0  0  0  0
  1  2  1  0
  1  5  1  0
  2  7  1  0
  3  4  1  0
  3  5  1  0
  4  6  1  0
  5  8  1  0
  6 14  1  0
  6 15  1  0
  7 18  1  0
  7 20  1  0
  8  9  1  0
  9 10  1  0
 10 11  1  0
 11 12  1  0
 12 13  2  0
 14 16  1  0
 15 17  1  0
 16 22  2  0
 16 26  1  0
 17 23  2  0
 17 27  1  0
 18 19  1  0
 19 25  2  0
 19 29  1  0
 20 21  1  0
 21 24  2  0
 21 28  1  0
M  END
>  <logK_Eu_z=3.0_T=25_I=1.0>  (222) 
19.05

$$$$
***** ADPTZ.MOL2
     RDKit          2D

 20 22  0  0  0  0  0  0  0  0999 V2000
    5.1564    0.0633    0.0000 C   0  0  0  0  0  0  0  0  0  0  0  0
    6.1119   -0.2314    0.0000 C   0  0  0  0  0  0  0  0  0  0  0  0
    6.4773   -1.1623    0.0000 C   0  0  0  0  0  0  0  0  0  0  0  0
    5.9773   -2.0283    0.0000 C   0  0  0  0  0  0  0  0  0  0  0  0
    4.3301   -0.5000    0.0000 C   0  0  0  0  0  0  0  0  0  0  0  0
    4.9884   -2.1774    0.0000 C   0  0  0  0  0  0  0  0  0  0  0  0
    4.2554   -1.4972    0.0000 N   0  0  0  0  0  0  0  0  0  0  0  0
    3.4641    0.0000    0.0000 C   0  0  0  0  0  0  0  0  0  0  0  0
    2.5981   -0.5000    0.0000 N   0  0  0  0  0  0  0  0  0  0  0  0
    3.4641    1.0000    0.0000 N   0  0  0  0  0  0  0  0  0  0  0  0
    2.5981    1.5000    0.0000 C   0  0  0  0  0  0  0  0  0  0  0  0
    1.7321   -0.0000    0.0000 C   0  0  0  0  0  0  0  0  0  0  0  0
    1.7321    1.0000    0.0000 N   0  0  0  0  0  0  0  0  0  0  0  0
    2.5981    2.5000    0.0000 N   0  0  0  0  0  0  0  0  0  0  0  0
    0.8660   -0.5000    0.0000 C   0  0  0  0  0  0  0  0  0  0  0  0
    0.8660   -1.5000    0.0000 C   0  0  0  0  0  0  0  0  0  0  0  0
    0.0000   -2.0000    0.0000 C   0  0  0  0  0  0  0  0  0  0  0  0
   -0.8660   -1.5000    0.0000 C   0  0  0  0  0  0  0  0  0  0  0  0
   -0.8660   -0.5000    0.0000 C   0  0  0  0  0  0  0  0  0  0  0  0
    0.0000    0.0000    0.0000 N   0  0  0  0  0  0  0  0  0  0  0  0
  1  2  2  0
  1  5  1  0
  2  3  1  0
  3  4  2  0
  4  6  1  0
  5  7  2  0
  5  8  1  0
  6  7  1  0
  8  9  2  0
  8 10  1  0
  9 12  1  0
 10 11  2  0
 11 13  1  0
 11 14  1  0
 12 13  2  0
 12 15  1  0
 15 16  2  0
 15 20  1  0
 16 17  1  0
 17 18  2  0
 18 19  1  0
 19 20  2  0
M  END
>  <logK_Eu_z=3.0_T=25_I=1.0>  (223) 
4.51

$$$$
***** ADIPIC.MOL2
     RDKit          2D

 10  9  0  0  0  0  0  0  0  0999 V2000
   -0.0000    1.0000    0.0000 C   0  0  0  0  0  0  0  0  0  0  0  0
    0.8660    1.5000    0.0000 C   0  0  0  0  0  0  0  0  0  0  0  0
    1.7321    1.0000    0.0000 C   0  0  0  0  0  0  0  0  0  0  0  0
    2.5981    1.5000    0.0000 C   0  0  0  0  0  0  0  0  0  0  0  0
    2.5981    2.5000    0.0000 C   0  0  0  0  0  0  0  0  0  0  0  0
    1.7321    3.0000    0.0000 C   0  0  0  0  0  0  0  0  0  0  0  0
    0.8660    2.5000    0.0000 O   0  0  0  0  0  0  0  0  0  0  0  0
   -0.8660    1.5000    0.0000 O   0  0  0  0  0  0  0  0  0  0  0  0
    1.7321    4.0000    0.0000 O   0  0  0  0  0  0  0  0  0  0  0  0
   -0.0000   -0.0000    0.0000 O   0  0  0  0  0  0  0  0  0  0  0  0
  1  2  1  0
  1  8  2  0
  1 10  1  0
  2  3  1  0
  3  4  1  0
  4  5  1  0
  5  6  1  0
  6  7  2  0
  6  9  1  0
M  END
>  <logK_Eu_z=3.0_T=25_I=1.0>  (224) 
4.31

$$$$
***** 3HSN.MOL2
     RDKit          2D

 18 19  0  0  0  0  0  0  0  0999 V2000
   -2.5000   -1.8660    0.0000 C   0  0  0  0  0  0  0  0  0  0  0  0
   -3.0000   -1.0000    0.0000 C   0  0  0  0  0  0  0  0  0  0  0  0
   -1.5000   -1.8660    0.0000 C   0  0  0  0  0  0  0  0  0  0  0  0
   -1.0000   -1.0000    0.0000 C   0  0  0  0  0  0  0  0  0  0  0  0
   -1.5000   -0.1340    0.0000 C   0  0  0  0  0  0  0  0  0  0  0  0
   -2.5000   -0.1340    0.0000 C   0  0  0  0  0  0  0  0  0  0  0  0
   -3.0000   -2.7321    0.0000 C   0  0  0  0  0  0  0  0  0  0  0  0
   -4.0000   -2.7321    0.0000 C   0  0  0  0  0  0  0  0  0  0  0  0
   -4.5000   -1.8660    0.0000 C   0  0  0  0  0  0  0  0  0  0  0  0
   -4.0000   -1.0000    0.0000 C   0  0  0  0  0  0  0  0  0  0  0  0
   -4.5000   -3.5981    0.0000 C   0  0  0  0  0  0  0  0  0  0  0  0
    0.0000   -1.0000    0.0000 S   0  0  0  0  0  0  0  0  0  0  0  0
   -5.5000   -1.8660    0.0000 O   0  0  0  0  0  0  0  0  0  0  0  0
   -5.5000   -3.5981    0.0000 O   0  0  0  0  0  0  0  0  0  0  0  0
    0.0000   -2.0000    0.0000 O   0  0  0  0  0  0  0  0  0  0  0  0
   -4.0000   -4.4641    0.0000 O   0  0  0  0  0  0  0  0  0  0  0  0
    1.0000   -1.0000    0.0000 O   0  0  0  0  0  0  0  0  0  0  0  0
   -0.0000   -0.0000    0.0000 O   0  0  0  0  0  0  0  0  0  0  0  0
  1  2  2  0
  2  6  1  0
  3  4  2  0
  3  1  1  0
  4 12  1  0
  5  6  2  0
  5  4  1  0
  7  8  2  0
  7  1  1  0
  8  9  1  0
  8 11  1  0
  9 10  2  0
  9 13  1  0
 10  2  1  0
 11 14  2  0
 11 16  1  0
 12 15  1  0
 12 17  2  0
 12 18  2  0
M  END
>  <logK_Eu_z=3.0_T=25_I=1.0>  (225) 
7.79

$$$$
***** 1HSN.MOL2
     RDKit          2D

 18 19  0  0  0  0  0  0  0  0999 V2000
    1.8660   -2.5000    0.0000 C   0  0  0  0  0  0  0  0  0  0  0  0
    1.8660   -1.5000    0.0000 C   0  0  0  0  0  0  0  0  0  0  0  0
    1.0000   -3.0000    0.0000 C   0  0  0  0  0  0  0  0  0  0  0  0
    0.1340   -2.5000    0.0000 C   0  0  0  0  0  0  0  0  0  0  0  0
    0.1340   -1.5000    0.0000 C   0  0  0  0  0  0  0  0  0  0  0  0
    1.0000   -1.0000    0.0000 C   0  0  0  0  0  0  0  0  0  0  0  0
    2.7321   -3.0000    0.0000 C   0  0  0  0  0  0  0  0  0  0  0  0
    3.5981   -2.5000    0.0000 C   0  0  0  0  0  0  0  0  0  0  0  0
    3.5981   -1.5000    0.0000 C   0  0  0  0  0  0  0  0  0  0  0  0
    2.7321   -1.0000    0.0000 C   0  0  0  0  0  0  0  0  0  0  0  0
    1.0000   -4.0000    0.0000 O   0  0  0  0  0  0  0  0  0  0  0  0
   -0.7321   -3.0000    0.0000 C   0  0  0  0  0  0  0  0  0  0  0  0
    1.0000   -0.0000    0.0000 S   0  0  0  0  0  0  0  0  0  0  0  0
    2.0000   -0.0000    0.0000 O   0  0  0  0  0  0  0  0  0  0  0  0
    1.0000    1.0000    0.0000 O   0  0  0  0  0  0  0  0  0  0  0  0
    0.0000    0.0000    0.0000 O   0  0  0  0  0  0  0  0  0  0  0  0
   -1.5981   -2.5000    0.0000 O   0  0  0  0  0  0  0  0  0  0  0  0
   -0.7321   -4.0000    0.0000 O   0  0  0  0  0  0  0  0  0  0  0  0
  1  2  2  0
  1  7  1  0
  2 10  1  0
  3  4  2  0
  3  1  1  0
  3 11  1  0
  4 12  1  0
  5  6  2  0
  5  4  1  0
  6  2  1  0
  6 13  1  0
  7  8  2  0
  9 10  2  0
  9  8  1  0
 12 17  2  0
 12 18  1  0
 13 14  1  0
 13 15  2  0
 13 16  2  0
M  END
>  <logK_Eu_z=3.0_T=25_I=1.0>  (226) 
8.91

$$$$
***** K2-A2-12C4-1.MOL2
     RDKit          2D

 22 22  0  0  0  0  0  0  0  0999 V2000
    9.5951  -14.3194    0.0000 C   0  0  0  0  0  0  0  0  0  0  0  0
   11.2972  -14.7755    0.0000 C   0  0  0  0  0  0  0  0  0  0  0  0
    8.3586   -9.6857    0.0000 C   0  0  0  0  0  0  0  0  0  0  0  0
    7.9025  -11.3878    0.0000 C   0  0  0  0  0  0  0  0  0  0  0  0
   14.6849  -11.3808    0.0000 C   0  0  0  0  0  0  0  0  0  0  0  0
   14.2288  -13.0829    0.0000 C   0  0  0  0  0  0  0  0  0  0  0  0
   11.2902   -7.9931    0.0000 C   0  0  0  0  0  0  0  0  0  0  0  0
   12.9923   -8.4492    0.0000 C   0  0  0  0  0  0  0  0  0  0  0  0
   14.2294   -9.6754    0.0000 N   0  0  0  0  0  0  0  0  0  0  0  0
    9.6057   -8.4365    0.0000 N   0  0  0  0  0  0  0  0  0  0  0  0
    8.3459  -13.0723    0.0000 O   0  0  0  0  0  0  0  0  0  0  0  0
   13.0026  -14.3201    0.0000 O   0  0  0  0  0  0  0  0  0  0  0  0
    6.1382  -11.3884    0.0000 O   0  0  0  0  0  0  0  0  0  0  0  0
   15.7565   -8.7937    0.0000 C   0  0  0  0  0  0  0  0  0  0  0  0
   17.2842   -9.6764    0.0000 C   0  0  0  0  0  0  0  0  0  0  0  0
    8.7241   -6.9094    0.0000 C   0  0  0  0  0  0  0  0  0  0  0  0
    9.5964   -5.3877    0.0000 C   0  0  0  0  0  0  0  0  0  0  0  0
   17.2848  -11.4408    0.0000 O   0  0  0  0  0  0  0  0  0  0  0  0
   18.8113   -8.7948    0.0000 O   0  0  0  0  0  0  0  0  0  0  0  0
   11.3502   -5.3932    0.0000 O   0  0  0  0  0  0  0  0  0  0  0  0
    8.7148   -3.8606    0.0000 O   0  0  0  0  0  0  0  0  0  0  0  0
   15.7565  -13.9656    0.0000 O   0  0  0  0  0  0  0  0  0  0  0  0
  1  2  1  0
  3  4  1  0
  5  6  1  0
  7  8  1  0
  8  9  1  0
  5  9  1  0
  7 10  1  0
  3 10  1  0
  4 11  1  0
  1 11  1  0
  6 12  1  0
  2 12  1  0
  4 13  2  0
  9 14  1  0
 14 15  1  0
 10 16  1  0
 16 17  1  0
 15 18  1  0
 15 19  2  0
 17 20  1  0
 17 21  2  0
  6 22  2  0
M  END
>  <logK_Eu_z=3.0_T=25_I=1.0>  (227) 
6.06

$$$$
***** (1,3-B)-15C4-3.MOL2
     RDKit          2D

 22 23  0  0  0  0  0  0  0  0999 V2000
   13.0534  -16.7532    0.0000 C   0  0  0  0  0  0  0  0  0  0  0  0
   13.8761  -17.6594    0.0000 C   0  0  0  0  0  0  0  0  0  0  0  0
   17.0497  -16.2858    0.0000 C   0  0  0  0  0  0  0  0  0  0  0  0
   16.1635  -17.0985    0.0000 C   0  0  0  0  0  0  0  0  0  0  0  0
   12.2620  -13.5446    0.0000 C   0  0  0  0  0  0  0  0  0  0  0  0
   11.7942  -14.7303    0.0000 C   0  0  0  0  0  0  0  0  0  0  0  0
   15.9312  -10.5411    0.0000 C   0  0  0  0  0  0  0  0  0  0  0  0
   15.2696  -11.6982    0.0000 C   0  0  0  0  0  0  0  0  0  0  0  0
   17.2612  -10.5411    0.0000 C   0  0  0  0  0  0  0  0  0  0  0  0
   15.9335  -12.8544    0.0000 C   0  0  0  0  0  0  0  0  0  0  0  0
   17.9087  -11.7064    0.0000 C   0  0  0  0  0  0  0  0  0  0  0  0
   17.2648  -12.8698    0.0000 C   0  0  0  0  0  0  0  0  0  0  0  0
   17.9251  -14.0070    0.0000 C   0  0  0  0  0  0  0  0  0  0  0  0
   13.9210  -11.8207    0.0000 C   0  0  0  0  0  0  0  0  0  0  0  0
   13.4268  -13.0423    0.0000 O   0  0  0  0  0  0  0  0  0  0  0  0
   17.5929  -15.1995    0.0000 O   0  0  0  0  0  0  0  0  0  0  0  0
   12.1640  -15.9228    0.0000 O   0  0  0  0  0  0  0  0  0  0  0  0
   15.1534  -17.8010    0.0000 O   0  0  0  0  0  0  0  0  0  0  0  0
   15.3186  -14.0324    0.0000 O   0  0  0  0  0  0  0  0  0  0  0  0
   17.9310   -9.3958    0.0000 N   0  0  0  0  0  0  0  0  0  0  0  0
   19.2605   -9.3949    0.0000 O   0  0  0  0  0  0  0  0  0  0  0  0
   17.2757   -8.2382    0.0000 O   0  0  0  0  0  0  0  0  0  0  0  0
  1  2  1  0
  3  4  1  0
  5  6  1  0
  8  7  2  0
  9  7  1  0
 10  8  1  0
 11  9  2  0
 12 10  2  0
 12 11  1  0
 12 13  1  0
  8 14  1  0
 14 15  1  0
  5 15  1  0
 13 16  1  0
  3 16  1  0
  6 17  1  0
  1 17  1  0
  2 18  1  0
  4 18  1  0
 10 19  1  0
  9 20  1  0
 20 21  1  0
 20 22  2  0
M  CHG  2  20   1  21  -1
M  END
>  <logK_Eu_z=3.0_T=25_I=1.0>  (228) 
3.28

$$$$
***** 15C5-1.MOL2
     RDKit          2D

 15 15  0  0  0  0  0  0  0  0999 V2000
    9.6027   -8.2056    0.0000 O   0  0  0  0  0  0  0  0  0  0  0  0
   10.8554   -6.4349    0.0000 C   0  0  0  0  0  0  0  0  0  0  0  0
   12.9181   -7.0094    0.0000 C   0  0  0  0  0  0  0  0  0  0  0  0
   14.2274   -5.2575    0.0000 O   0  0  0  0  0  0  0  0  0  0  0  0
   16.3938   -5.9356    0.0000 C   0  0  0  0  0  0  0  0  0  0  0  0
   16.3938   -8.1491    0.0000 C   0  0  0  0  0  0  0  0  0  0  0  0
   18.5036   -8.8367    0.0000 O   0  0  0  0  0  0  0  0  0  0  0  0
   18.5036  -11.0502    0.0000 C   0  0  0  0  0  0  0  0  0  0  0  0
   16.4126  -11.8037    0.0000 C   0  0  0  0  0  0  0  0  0  0  0  0
   16.3655  -13.9701    0.0000 O   0  0  0  0  0  0  0  0  0  0  0  0
   14.2745  -14.6765    0.0000 C   0  0  0  0  0  0  0  0  0  0  0  0
   12.9464  -12.9057    0.0000 C   0  0  0  0  0  0  0  0  0  0  0  0
   10.8554  -13.4991    0.0000 O   0  0  0  0  0  0  0  0  0  0  0  0
    9.6309  -11.7566    0.0000 C   0  0  0  0  0  0  0  0  0  0  0  0
   10.8554   -9.9764    0.0000 C   0  0  0  0  0  0  0  0  0  0  0  0
  1  2  1  0
  2  3  1  0
  3  4  1  0
  4  5  1  0
  5  6  1  0
  6  7  1  0
  7  8  1  0
  8  9  1  0
  9 10  1  0
 10 11  1  0
 11 12  1  0
 12 13  1  0
 13 14  1  0
 14 15  1  0
 15  1  1  0
M  END
>  <logK_Eu_z=3.0_T=25_I=1.0>  (229) 
5.753

$$$$
***** B15C5-1.MOL2
     RDKit          2D

 19 20  0  0  0  0  0  0  0  0999 V2000
   11.4473  -11.3073    0.0000 C   0  0  0  0  0  0  0  0  0  0  0  0
   11.4473   -9.0913    0.0000 C   0  0  0  0  0  0  0  0  0  0  0  0
    9.5282  -12.4154    0.0000 C   0  0  0  0  0  0  0  0  0  0  0  0
    9.5282   -7.9833    0.0000 C   0  0  0  0  0  0  0  0  0  0  0  0
    7.6090  -11.3073    0.0000 C   0  0  0  0  0  0  0  0  0  0  0  0
    7.6090   -9.0913    0.0000 C   0  0  0  0  0  0  0  0  0  0  0  0
   12.3487  -13.3318    0.0000 O   0  0  0  0  0  0  0  0  0  0  0  0
   12.3487   -7.0669    0.0000 O   0  0  0  0  0  0  0  0  0  0  0  0
   13.9955  -14.8146    0.0000 C   0  0  0  0  0  0  0  0  0  0  0  0
   16.1030  -15.4994    0.0000 C   0  0  0  0  0  0  0  0  0  0  0  0
   18.3069  -15.2678    0.0000 O   0  0  0  0  0  0  0  0  0  0  0  0
   20.2261  -14.1597    0.0000 C   0  0  0  0  0  0  0  0  0  0  0  0
   21.5286  -12.3669    0.0000 C   0  0  0  0  0  0  0  0  0  0  0  0
   21.9893  -10.1993    0.0000 O   0  0  0  0  0  0  0  0  0  0  0  0
   21.5286   -8.0317    0.0000 C   0  0  0  0  0  0  0  0  0  0  0  0
   20.2261   -6.2389    0.0000 C   0  0  0  0  0  0  0  0  0  0  0  0
   18.3069   -5.1309    0.0000 O   0  0  0  0  0  0  0  0  0  0  0  0
   16.1030   -4.8993    0.0000 C   0  0  0  0  0  0  0  0  0  0  0  0
   13.9955   -5.5841    0.0000 C   0  0  0  0  0  0  0  0  0  0  0  0
  2  1  1  0
  3  1  2  0
  4  2  2  0
  5  3  1  0
  6  4  1  0
  6  5  2  0
  1  7  1  0
  2  8  1  0
  7  9  1  0
  9 10  1  0
 10 11  1  0
 11 12  1  0
 12 13  1  0
 13 14  1  0
 14 15  1  0
 15 16  1  0
 16 17  1  0
 17 18  1  0
 18 19  1  0
 19  8  1  0
M  END
>  <logK_Eu_z=3.0_T=25_I=1.0>  (230) 
4.975

$$$$
***** A2-15C5-8.MOL2
     RDKit          2D

 23 23  0  0  0  0  0  0  0  0999 V2000
   16.1095  -23.9210    0.0000 C   0  0  0  0  0  0  0  0  0  0  0  0
   14.1072  -23.9211    0.0000 C   0  0  0  0  0  0  0  0  0  0  0  0
   19.8706  -19.7137    0.0000 C   0  0  0  0  0  0  0  0  0  0  0  0
   19.2627  -21.6035    0.0000 C   0  0  0  0  0  0  0  0  0  0  0  0
   17.9257  -23.1057    0.0000 O   0  0  0  0  0  0  0  0  0  0  0  0
   10.3291  -19.7376    0.0000 C   0  0  0  0  0  0  0  0  0  0  0  0
   10.9477  -21.6450    0.0000 C   0  0  0  0  0  0  0  0  0  0  0  0
   12.2907  -23.1270    0.0000 O   0  0  0  0  0  0  0  0  0  0  0  0
   17.0290  -14.8374    0.0000 C   0  0  0  0  0  0  0  0  0  0  0  0
   18.6558  -16.0047    0.0000 C   0  0  0  0  0  0  0  0  0  0  0  0
   11.5204  -16.0337    0.0000 C   0  0  0  0  0  0  0  0  0  0  0  0
   13.1351  -14.8447    0.0000 C   0  0  0  0  0  0  0  0  0  0  0  0
   15.0902  -14.4235    0.0000 O   0  0  0  0  0  0  0  0  0  0  0  0
   10.5312  -17.7591    0.0000 N   0  0  0  0  0  0  0  0  0  0  0  0
   19.6561  -17.7260    0.0000 N   0  0  0  0  0  0  0  0  0  0  0  0
   21.5632  -17.1079    0.0000 C   0  0  0  0  0  0  0  0  0  0  0  0
   23.0526  -18.4408    0.0000 C   0  0  0  0  0  0  0  0  0  0  0  0
    8.6279  -17.1469    0.0000 C   0  0  0  0  0  0  0  0  0  0  0  0
    7.1500  -18.4770    0.0000 C   0  0  0  0  0  0  0  0  0  0  0  0
    7.5710  -20.4327    0.0000 O   0  0  0  0  0  0  0  0  0  0  0  0
    5.2473  -17.8650    0.0000 O   0  0  0  0  0  0  0  0  0  0  0  0
   22.6346  -20.3923    0.0000 O   0  0  0  0  0  0  0  0  0  0  0  0
   24.9465  -17.8178    0.0000 O   0  0  0  0  0  0  0  0  0  0  0  0
  1  2  1  0
  3  4  1  0
  4  5  1  0
  1  5  1  0
  6  7  1  0
  7  8  1  0
  2  8  1  0
  9 10  1  0
 11 12  1  0
 12 13  1  0
  9 13  1  0
 11 14  1  0
  6 14  1  0
 10 15  1  0
  3 15  1  0
 15 16  1  0
 16 17  1  0
 14 18  1  0
 18 19  1  0
 19 20  1  0
 19 21  2  0
 17 22  2  0
 17 23  1  0
M  END
>  <logK_Eu_z=3.0_T=25_I=1.0>  (231) 
12.02

$$$$
***** K2-A2-15C5-2.MOL2
     RDKit          2D

 25 25  0  0  0  0  0  0  0  0999 V2000
    7.0914   -9.6842    0.0000 C   0  0  0  0  0  0  0  0  0  0  0  0
    8.5103   -8.1115    0.0000 C   0  0  0  0  0  0  0  0  0  0  0  0
   12.5655   -7.2452    0.0000 C   0  0  0  0  0  0  0  0  0  0  0  0
   14.5250   -8.1133    0.0000 C   0  0  0  0  0  0  0  0  0  0  0  0
   16.3617  -13.8205    0.0000 C   0  0  0  0  0  0  0  0  0  0  0  0
   16.6041  -11.7144    0.0000 C   0  0  0  0  0  0  0  0  0  0  0  0
   11.5194  -17.3537    0.0000 C   0  0  0  0  0  0  0  0  0  0  0  0
   13.5909  -16.9113    0.0000 C   0  0  0  0  0  0  0  0  0  0  0  0
   15.3208  -15.6502    0.0000 N   0  0  0  0  0  0  0  0  0  0  0  0
   15.9421   -9.6873    0.0000 N   0  0  0  0  0  0  0  0  0  0  0  0
   16.9011  -17.0813    0.0000 C   0  0  0  0  0  0  0  0  0  0  0  0
   16.4670  -19.1676    0.0000 C   0  0  0  0  0  0  0  0  0  0  0  0
   17.7857   -8.6229    0.0000 C   0  0  0  0  0  0  0  0  0  0  0  0
   19.6302   -9.6885    0.0000 C   0  0  0  0  0  0  0  0  0  0  0  0
   10.4602   -7.2314    0.0000 O   0  0  0  0  0  0  0  0  0  0  0  0
    7.7112  -15.6687    0.0000 C   0  0  0  0  0  0  0  0  0  0  0  0
    6.6469  -13.8252    0.0000 C   0  0  0  0  0  0  0  0  0  0  0  0
    9.4259  -16.9071    0.0000 O   0  0  0  0  0  0  0  0  0  0  0  0
    6.4243  -11.7081    0.0000 O   0  0  0  0  0  0  0  0  0  0  0  0
   13.0193   -5.1642    0.0000 O   0  0  0  0  0  0  0  0  0  0  0  0
   11.5200  -19.4839    0.0000 O   0  0  0  0  0  0  0  0  0  0  0  0
   14.4329  -19.8176    0.0000 O   0  0  0  0  0  0  0  0  0  0  0  0
   18.0397  -20.5865    0.0000 O   0  0  0  0  0  0  0  0  0  0  0  0
   19.6235  -11.8062    0.0000 O   0  0  0  0  0  0  0  0  0  0  0  0
   21.4737   -8.6241    0.0000 O   0  0  0  0  0  0  0  0  0  0  0  0
  1  2  1  0
  3  4  1  0
  5  6  1  0
  7  8  1  0
  8  9  1  0
  5  9  1  0
  6 10  1  0
  4 10  1  0
  9 11  1  0
 11 12  1  0
 10 13  1  0
 13 14  1  0
  3 15  1  0
  2 15  1  0
 16 17  1  0
 16 18  1  0
  7 18  1  0
 17 19  1  0
  1 19  1  0
  3 20  2  0
  7 21  2  0
 12 22  1  0
 12 23  2  0
 14 24  2  0
 14 25  1  0
M  END
>  <logK_Eu_z=3.0_T=25_I=1.0>  (232) 
8.80

$$$$
***** (1,3-B)-18C5-17.MOL2
     RDKit          2D

 25 26  0  0  0  0  0  0  0  0999 V2000
   10.4961  -14.1763    0.0000 C   0  0  0  0  0  0  0  0  0  0  0  0
   11.3822  -13.2439    0.0000 C   0  0  0  0  0  0  0  0  0  0  0  0
   12.6955  -16.8205    0.0000 C   0  0  0  0  0  0  0  0  0  0  0  0
   11.5583  -16.3022    0.0000 C   0  0  0  0  0  0  0  0  0  0  0  0
   16.1692  -16.3720    0.0000 C   0  0  0  0  0  0  0  0  0  0  0  0
   14.9998  -17.0508    0.0000 C   0  0  0  0  0  0  0  0  0  0  0  0
   17.0952  -12.9360    0.0000 C   0  0  0  0  0  0  0  0  0  0  0  0
   17.1135  -14.2330    0.0000 C   0  0  0  0  0  0  0  0  0  0  0  0
   12.6653   -8.7536    0.0000 C   0  0  0  0  0  0  0  0  0  0  0  0
   12.6701  -10.0764    0.0000 C   0  0  0  0  0  0  0  0  0  0  0  0
   13.8186   -8.0877    0.0000 C   0  0  0  0  0  0  0  0  0  0  0  0
   13.8169  -10.7471    0.0000 C   0  0  0  0  0  0  0  0  0  0  0  0
   14.9641   -8.7718    0.0000 C   0  0  0  0  0  0  0  0  0  0  0  0
   14.9796  -10.1017    0.0000 C   0  0  0  0  0  0  0  0  0  0  0  0
   16.1021  -10.8275    0.0000 C   0  0  0  0  0  0  0  0  0  0  0  0
   11.5334  -10.7911    0.0000 C   0  0  0  0  0  0  0  0  0  0  0  0
   16.0417  -12.1584    0.0000 O   0  0  0  0  0  0  0  0  0  0  0  0
   16.0807  -15.0306    0.0000 O   0  0  0  0  0  0  0  0  0  0  0  0
   13.8862  -16.3019    0.0000 O   0  0  0  0  0  0  0  0  0  0  0  0
   10.6823  -15.4522    0.0000 O   0  0  0  0  0  0  0  0  0  0  0  0
   11.5205  -12.0446    0.0000 O   0  0  0  0  0  0  0  0  0  0  0  0
   13.7865  -12.0770    0.0000 O   0  0  0  0  0  0  0  0  0  0  0  0
   13.8240   -6.7626    0.0000 N   0  0  0  0  0  0  0  0  0  0  0  0
   14.9741   -6.0974    0.0000 O   0  0  0  0  0  0  0  0  0  0  0  0
   12.6798   -6.0880    0.0000 O   0  0  0  0  0  0  0  0  0  0  0  0
  1  2  1  0
  3  4  1  0
  5  6  1  0
  7  8  1  0
 10  9  2  0
 11  9  1  0
 12 10  1  0
 13 11  2  0
 14 12  2  0
 14 13  1  0
 14 15  1  0
 10 16  1  0
 15 17  1  0
  7 17  1  0
  8 18  1  0
  5 18  1  0
  6 19  1  0
  3 19  1  0
  4 20  1  0
  1 20  1  0
 16 21  1  0
  2 21  1  0
 12 22  1  0
 11 23  1  0
 23 24  1  0
 23 25  2  0
M  CHG  2  23   1  24  -1
M  END
>  <logK_Eu_z=3.0_T=25_I=1.0>  (233) 
3.17

$$$$
***** Cy2-18C6-3.MOL2
     RDKit          2D

 26 28  0  0  0  0  0  0  0  0999 V2000
   19.3257  -11.2679    0.0000 C   0  0  0  0  0  0  0  0  0  0  0  0
   19.3257   -9.9275    0.0000 C   0  0  0  0  0  0  0  0  0  0  0  0
   18.1702  -11.9265    0.0000 C   0  0  0  0  0  0  0  0  0  0  0  0
   18.1702   -9.2574    0.0000 C   0  0  0  0  0  0  0  0  0  0  0  0
   17.0148  -11.2679    0.0000 C   0  0  0  0  0  0  0  0  0  0  0  0
   17.0148   -9.9275    0.0000 C   0  0  0  0  0  0  0  0  0  0  0  0
   15.8593  -11.9265    0.0000 O   0  0  0  0  0  0  0  0  0  0  0  0
   15.8593   -9.2574    0.0000 O   0  0  0  0  0  0  0  0  0  0  0  0
   15.8593  -13.2668    0.0000 C   0  0  0  0  0  0  0  0  0  0  0  0
   14.7038  -13.9255    0.0000 C   0  0  0  0  0  0  0  0  0  0  0  0
   13.5484  -13.2668    0.0000 O   0  0  0  0  0  0  0  0  0  0  0  0
   12.3929  -13.9255    0.0000 C   0  0  0  0  0  0  0  0  0  0  0  0
   11.2374  -13.2668    0.0000 C   0  0  0  0  0  0  0  0  0  0  0  0
   10.0820  -11.2679    0.0000 C   0  0  0  0  0  0  0  0  0  0  0  0
   10.0820   -9.9275    0.0000 C   0  0  0  0  0  0  0  0  0  0  0  0
    8.9265  -11.9265    0.0000 C   0  0  0  0  0  0  0  0  0  0  0  0
    8.9265   -9.2574    0.0000 C   0  0  0  0  0  0  0  0  0  0  0  0
    7.7710  -11.2679    0.0000 C   0  0  0  0  0  0  0  0  0  0  0  0
    7.7710   -9.9275    0.0000 C   0  0  0  0  0  0  0  0  0  0  0  0
   11.2374  -11.9265    0.0000 O   0  0  0  0  0  0  0  0  0  0  0  0
   11.2374   -9.2574    0.0000 O   0  0  0  0  0  0  0  0  0  0  0  0
   11.2374   -7.9286    0.0000 C   0  0  0  0  0  0  0  0  0  0  0  0
   12.3929   -7.2584    0.0000 C   0  0  0  0  0  0  0  0  0  0  0  0
   13.5484   -7.9286    0.0000 O   0  0  0  0  0  0  0  0  0  0  0  0
   14.7038   -7.2584    0.0000 C   0  0  0  0  0  0  0  0  0  0  0  0
   15.8593   -7.9286    0.0000 C   0  0  0  0  0  0  0  0  0  0  0  0
  2  1  1  0
  3  1  1  0
  4  2  1  0
  5  3  1  0
  6  4  1  0
  6  5  1  0
  5  7  1  0
  6  8  1  0
  7  9  1  0
  9 10  1  0
 10 11  1  0
 11 12  1  0
 12 13  1  0
 15 14  1  0
 16 14  1  0
 17 15  1  0
 18 16  1  0
 19 17  1  0
 19 18  1  0
 14 20  1  0
 15 21  1  0
 13 20  1  0
 21 22  1  0
 22 23  1  0
 23 24  1  0
 24 25  1  0
 25 26  1  0
 26  8  1  0
M  END
>  <logK_Eu_z=3.0_T=25_I=1.0>  (234) 
2.83

$$$$
***** A2-18C6-2.MOL2
     RDKit          2D

 22 22  0  0  0  0  0  0  0  0999 V2000
   14.2943  -14.1542    0.0000 C   0  0  0  0  0  0  0  0  0  0  0  0
   12.9444  -14.9451    0.0000 C   0  0  0  0  0  0  0  0  0  0  0  0
   17.0082  -12.5805    0.0000 C   0  0  0  0  0  0  0  0  0  0  0  0
   17.0194  -14.1572    0.0000 C   0  0  0  0  0  0  0  0  0  0  0  0
   17.0060   -9.4574    0.0000 C   0  0  0  0  0  0  0  0  0  0  0  0
   18.3600  -10.2392    0.0000 C   0  0  0  0  0  0  0  0  0  0  0  0
   18.3793  -11.8018    0.0000 N   0  0  0  0  0  0  0  0  0  0  0  0
   14.3050   -7.8980    0.0000 C   0  0  0  0  0  0  0  0  0  0  0  0
   15.6549   -7.1071    0.0000 C   0  0  0  0  0  0  0  0  0  0  0  0
   10.2181  -11.8008    0.0000 C   0  0  0  0  0  0  0  0  0  0  0  0
   11.5933  -12.5948    0.0000 C   0  0  0  0  0  0  0  0  0  0  0  0
   11.5781   -9.4454    0.0000 C   0  0  0  0  0  0  0  0  0  0  0  0
   11.5881   -7.8809    0.0000 C   0  0  0  0  0  0  0  0  0  0  0  0
   10.2281  -10.2363    0.0000 N   0  0  0  0  0  0  0  0  0  0  0  0
   12.9298   -7.1041    0.0000 O   0  0  0  0  0  0  0  0  0  0  0  0
   17.0160   -7.8929    0.0000 O   0  0  0  0  0  0  0  0  0  0  0  0
   15.6483  -14.9359    0.0000 O   0  0  0  0  0  0  0  0  0  0  0  0
   11.5833  -14.1593    0.0000 O   0  0  0  0  0  0  0  0  0  0  0  0
   19.9204  -12.0963    0.0000 C   0  0  0  0  0  0  0  0  0  0  0  0
   20.9460  -10.9090    0.0000 C   0  0  0  0  0  0  0  0  0  0  0  0
   20.4305   -9.4271    0.0000 O   0  0  0  0  0  0  0  0  0  0  0  0
   22.4870  -11.2035    0.0000 O   0  0  0  0  0  0  0  0  0  0  0  0
  1  2  1  0
  3  4  1  0
  5  6  1  0
  6  7  1  0
  3  7  1  0
  8  9  1  0
 10 11  1  0
 12 13  1  0
 12 14  1  0
 10 14  1  0
 13 15  1  0
  8 15  1  0
  9 16  1  0
  5 16  1  0
  4 17  1  0
  1 17  1  0
  2 18  1  0
 11 18  1  0
  7 19  1  0
 19 20  1  0
 20 21  1  0
 20 22  2  0
M  END
>  <logK_Eu_z=3.0_T=25_I=1.0>  (235) 
7.38

$$$$
***** A2-18C6-17.MOL2
     RDKit          2D

 26 26  0  0  0  0  0  0  0  0999 V2000
   15.5525  -13.8429    0.0000 C   0  0  0  0  0  0  0  0  0  0  0  0
   14.0086  -14.7475    0.0000 C   0  0  0  0  0  0  0  0  0  0  0  0
   21.9873  -11.4892    0.0000 C   0  0  0  0  0  0  0  0  0  0  0  0
   22.5768  -13.1841    0.0000 C   0  0  0  0  0  0  0  0  0  0  0  0
   18.6566  -12.0430    0.0000 C   0  0  0  0  0  0  0  0  0  0  0  0
   18.6693  -13.8464    0.0000 C   0  0  0  0  0  0  0  0  0  0  0  0
   18.6540   -8.4710    0.0000 C   0  0  0  0  0  0  0  0  0  0  0  0
   20.2026   -9.3651    0.0000 C   0  0  0  0  0  0  0  0  0  0  0  0
   20.2247  -11.1524    0.0000 N   0  0  0  0  0  0  0  0  0  0  0  0
    9.1399   -9.0218    0.0000 C   0  0  0  0  0  0  0  0  0  0  0  0
    7.9644  -10.3777    0.0000 C   0  0  0  0  0  0  0  0  0  0  0  0
   10.8905  -11.1512    0.0000 C   0  0  0  0  0  0  0  0  0  0  0  0
   12.4633  -12.0593    0.0000 C   0  0  0  0  0  0  0  0  0  0  0  0
   12.4458   -8.4573    0.0000 C   0  0  0  0  0  0  0  0  0  0  0  0
   12.4573   -6.6679    0.0000 C   0  0  0  0  0  0  0  0  0  0  0  0
   10.9019   -9.3619    0.0000 N   0  0  0  0  0  0  0  0  0  0  0  0
   15.5648   -6.6875    0.0000 C   0  0  0  0  0  0  0  0  0  0  0  0
   17.1087   -5.7829    0.0000 C   0  0  0  0  0  0  0  0  0  0  0  0
   13.9919   -5.7794    0.0000 O   0  0  0  0  0  0  0  0  0  0  0  0
   18.6654   -6.6816    0.0000 O   0  0  0  0  0  0  0  0  0  0  0  0
   17.1012  -14.7370    0.0000 O   0  0  0  0  0  0  0  0  0  0  0  0
   12.4519  -13.8487    0.0000 O   0  0  0  0  0  0  0  0  0  0  0  0
   24.3394  -13.5210    0.0000 O   0  0  0  0  0  0  0  0  0  0  0  0
   21.4038  -14.5421    0.0000 O   0  0  0  0  0  0  0  0  0  0  0  0
    6.2025  -10.0376    0.0000 O   0  0  0  0  0  0  0  0  0  0  0  0
    8.5509  -12.0736    0.0000 O   0  0  0  0  0  0  0  0  0  0  0  0
  1  2  1  0
  3  4  1  0
  5  6  1  0
  7  8  1  0
  8  9  1  0
  5  9  1  0
  3  9  1  0
 10 11  1  0
 12 13  1  0
 14 15  1  0
 14 16  1  0
 12 16  1  0
 10 16  1  0
 17 18  1  0
 17 19  1  0
 15 19  1  0
 18 20  1  0
  7 20  1  0
  6 21  1  0
  1 21  1  0
  2 22  1  0
 13 22  1  0
  4 23  1  0
  4 24  2  0
 11 25  1  0
 11 26  2  0
M  END
>  <logK_Eu_z=3.0_T=25_I=1.0>  (236) 
12.02

$$$$
***** A2-18C6-22.MOL2
     RDKit          2D

 28 28  0  0  0  0  0  0  0  0999 V2000
   15.0695  -12.6647    0.0000 C   0  0  0  0  0  0  0  0  0  0  0  0
   13.8947  -13.3530    0.0000 C   0  0  0  0  0  0  0  0  0  0  0  0
   17.4314  -11.2951    0.0000 C   0  0  0  0  0  0  0  0  0  0  0  0
   17.4411  -12.6673    0.0000 C   0  0  0  0  0  0  0  0  0  0  0  0
   17.4294   -8.5772    0.0000 C   0  0  0  0  0  0  0  0  0  0  0  0
   18.6078   -9.2575    0.0000 C   0  0  0  0  0  0  0  0  0  0  0  0
   18.6246  -10.6174    0.0000 N   0  0  0  0  0  0  0  0  0  0  0  0
   15.0788   -7.2201    0.0000 C   0  0  0  0  0  0  0  0  0  0  0  0
   16.2536   -6.5317    0.0000 C   0  0  0  0  0  0  0  0  0  0  0  0
   11.5221  -10.6166    0.0000 C   0  0  0  0  0  0  0  0  0  0  0  0
   12.7189  -11.3075    0.0000 C   0  0  0  0  0  0  0  0  0  0  0  0
   12.7143   -7.2051    0.0000 C   0  0  0  0  0  0  0  0  0  0  0  0
   12.7056   -8.5667    0.0000 C   0  0  0  0  0  0  0  0  0  0  0  0
   11.5308   -9.2550    0.0000 N   0  0  0  0  0  0  0  0  0  0  0  0
   13.8820   -6.5291    0.0000 O   0  0  0  0  0  0  0  0  0  0  0  0
   17.4381   -7.2156    0.0000 O   0  0  0  0  0  0  0  0  0  0  0  0
   16.2479  -13.3450    0.0000 O   0  0  0  0  0  0  0  0  0  0  0  0
   12.7102  -12.6691    0.0000 O   0  0  0  0  0  0  0  0  0  0  0  0
   19.9658  -10.8737    0.0000 C   0  0  0  0  0  0  0  0  0  0  0  0
   20.4144  -12.1634    0.0000 C   0  0  0  0  0  0  0  0  0  0  0  0
   21.7555  -12.4197    0.0000 C   0  0  0  0  0  0  0  0  0  0  0  0
   10.1901   -8.9962    0.0000 C   0  0  0  0  0  0  0  0  0  0  0  0
    9.2957  -10.0279    0.0000 C   0  0  0  0  0  0  0  0  0  0  0  0
    7.9550   -9.7692    0.0000 C   0  0  0  0  0  0  0  0  0  0  0  0
   22.6481  -11.3864    0.0000 O   0  0  0  0  0  0  0  0  0  0  0  0
   22.2042  -13.7093    0.0000 O   0  0  0  0  0  0  0  0  0  0  0  0
    7.5088   -8.4787    0.0000 O   0  0  0  0  0  0  0  0  0  0  0  0
    7.0606  -10.8009    0.0000 O   0  0  0  0  0  0  0  0  0  0  0  0
  1  2  1  0
  3  4  1  0
  5  6  1  0
  6  7  1  0
  3  7  1  0
  8  9  1  0
 10 11  1  0
 12 13  1  0
 13 14  1  0
 10 14  1  0
 12 15  1  0
  8 15  1  0
  9 16  1  0
  5 16  1  0
  4 17  1  0
  1 17  1  0
  2 18  1  0
 11 18  1  0
  7 19  1  0
 19 20  1  0
 20 21  1  0
 14 22  1  0
 22 23  1  0
 23 24  1  0
 21 25  1  0
 21 26  2  0
 24 27  2  0
 24 28  1  0
M  END
>  <logK_Eu_z=3.0_T=25_I=1.0>  (237) 
7.38

$$$$
***** K2-A2-18C6-3.MOL2
     RDKit          2D

 28 28  0  0  0  0  0  0  0  0999 V2000
   13.2252  -18.6816    0.0000 C   0  0  0  0  0  0  0  0  0  0  0  0
   11.5017  -18.6869    0.0000 C   0  0  0  0  0  0  0  0  0  0  0  0
    7.6818  -15.4811    0.0000 C   0  0  0  0  0  0  0  0  0  0  0  0
    8.5494  -16.9824    0.0000 C   0  0  0  0  0  0  0  0  0  0  0  0
    8.5468  -10.5632    0.0000 C   0  0  0  0  0  0  0  0  0  0  0  0
    7.6800  -12.0645    0.0000 C   0  0  0  0  0  0  0  0  0  0  0  0
   17.0521  -15.4737    0.0000 C   0  0  0  0  0  0  0  0  0  0  0  0
   16.1853  -16.9751    0.0000 C   0  0  0  0  0  0  0  0  0  0  0  0
   13.2344   -8.8676    0.0000 C   0  0  0  0  0  0  0  0  0  0  0  0
   11.5005   -8.8669    0.0000 C   0  0  0  0  0  0  0  0  0  0  0  0
   16.1867  -10.5721    0.0000 C   0  0  0  0  0  0  0  0  0  0  0  0
   17.0439  -12.0674    0.0000 C   0  0  0  0  0  0  0  0  0  0  0  0
   14.8557   -9.4568    0.0000 N   0  0  0  0  0  0  0  0  0  0  0  0
   17.3402  -13.7731    0.0000 N   0  0  0  0  0  0  0  0  0  0  0  0
    9.8654   -9.4575    0.0000 O   0  0  0  0  0  0  0  0  0  0  0  0
    7.3757  -13.7698    0.0000 O   0  0  0  0  0  0  0  0  0  0  0  0
    9.8701  -18.0922    0.0000 O   0  0  0  0  0  0  0  0  0  0  0  0
   14.8505  -18.0854    0.0000 O   0  0  0  0  0  0  0  0  0  0  0  0
   17.5058  -18.0843    0.0000 O   0  0  0  0  0  0  0  0  0  0  0  0
   11.1942   -7.1560    0.0000 O   0  0  0  0  0  0  0  0  0  0  0  0
   19.0744  -13.7734    0.0000 C   0  0  0  0  0  0  0  0  0  0  0  0
   19.9418  -15.2751    0.0000 C   0  0  0  0  0  0  0  0  0  0  0  0
   15.7225   -7.9555    0.0000 C   0  0  0  0  0  0  0  0  0  0  0  0
   17.4565   -7.9563    0.0000 C   0  0  0  0  0  0  0  0  0  0  0  0
   18.3140   -9.4517    0.0000 O   0  0  0  0  0  0  0  0  0  0  0  0
   18.3232   -6.4550    0.0000 O   0  0  0  0  0  0  0  0  0  0  0  0
   19.0812  -16.7655    0.0000 O   0  0  0  0  0  0  0  0  0  0  0  0
   21.6759  -15.2754    0.0000 O   0  0  0  0  0  0  0  0  0  0  0  0
  1  2  1  0
  3  4  1  0
  5  6  1  0
  7  8  1  0
  9 10  1  0
 11 12  1  0
 11 13  1  0
  9 13  1  0
 12 14  1  0
  7 14  1  0
 10 15  1  0
  5 15  1  0
  6 16  1  0
  3 16  1  0
  4 17  1  0
  2 17  1  0
  1 18  1  0
  8 18  1  0
  8 19  2  0
 10 20  2  0
 14 21  1  0
 21 22  1  0
 13 23  1  0
 23 24  1  0
 24 25  1  0
 24 26  2  0
 22 27  1  0
 22 28  2  0
M  END
>  <logK_Eu_z=3.0_T=25_I=1.0>  (238) 
10.03

$$$$
***** 21C7-1.MOL2
     RDKit          2D

 19 19  0  0  0  0  0  0  0  0999 V2000
   11.0145   -6.4077    0.0000 O   0  0  0  0  0  0  0  0  0  0  0  0
   12.2148   -5.7147    0.0000 C   0  0  0  0  0  0  0  0  0  0  0  0
   13.5750   -5.4490    0.0000 C   0  0  0  0  0  0  0  0  0  0  0  0
   14.9478   -5.6394    0.0000 O   0  0  0  0  0  0  0  0  0  0  0  0
   16.1845   -6.2652    0.0000 C   0  0  0  0  0  0  0  0  0  0  0  0
   17.1509   -7.2586    0.0000 C   0  0  0  0  0  0  0  0  0  0  0  0
   17.7424   -8.5120    0.0000 O   0  0  0  0  0  0  0  0  0  0  0  0
   17.8949   -9.8896    0.0000 C   0  0  0  0  0  0  0  0  0  0  0  0
   17.5918  -11.2420    0.0000 C   0  0  0  0  0  0  0  0  0  0  0  0
   16.8660  -12.4227    0.0000 O   0  0  0  0  0  0  0  0  0  0  0  0
   10.1042   -7.4529    0.0000 C   0  0  0  0  0  0  0  0  0  0  0  0
    9.5827   -8.7369    0.0000 C   0  0  0  0  0  0  0  0  0  0  0  0
    9.5063  -10.1208    0.0000 O   0  0  0  0  0  0  0  0  0  0  0  0
   15.7961  -13.3038    0.0000 C   0  0  0  0  0  0  0  0  0  0  0  0
    9.8835  -11.4545    0.0000 C   0  0  0  0  0  0  0  0  0  0  0  0
   14.4982  -13.7898    0.0000 C   0  0  0  0  0  0  0  0  0  0  0  0
   13.1127  -13.8280    0.0000 O   0  0  0  0  0  0  0  0  0  0  0  0
   11.7900  -13.4143    0.0000 C   0  0  0  0  0  0  0  0  0  0  0  0
   10.6732  -12.5934    0.0000 O   0  0  0  0  0  0  0  0  0  0  0  0
  1  2  1  0
  2  3  1  0
  3  4  1  0
  4  5  1  0
  5  6  1  0
  6  7  1  0
  7  8  1  0
  8  9  1  0
  9 10  1  0
  1 11  1  0
 11 12  1  0
 12 13  1  0
 10 14  1  0
 13 15  1  0
 14 16  1  0
 16 17  1  0
 17 18  1  0
 18 19  1  0
 15 19  1  0
M  END
>  <logK_Eu_z=3.0_T=25_I=1.0>  (239) 
7.14

$$$$
***** K2-A2-21C7-1.MOL2
     RDKit          2D

 28 28  0  0  0  0  0  0  0  0999 V2000
   12.7316  -16.6173    0.0000 C   0  0  0  0  0  0  0  0  0  0  0  0
   11.0413  -17.5937    0.0000 C   0  0  0  0  0  0  0  0  0  0  0  0
   10.8176  -14.3409    0.0000 C   0  0  0  0  0  0  0  0  0  0  0  0
    9.1277  -13.3653    0.0000 C   0  0  0  0  0  0  0  0  0  0  0  0
    7.8791  -14.8517    0.0000 O   0  0  0  0  0  0  0  0  0  0  0  0
    7.8779  -11.8628    0.0000 O   0  0  0  0  0  0  0  0  0  0  0  0
   16.3451   -4.7670    0.0000 C   0  0  0  0  0  0  0  0  0  0  0  0
   14.6552   -3.7913    0.0000 C   0  0  0  0  0  0  0  0  0  0  0  0
   19.2804  -12.8443    0.0000 C   0  0  0  0  0  0  0  0  0  0  0  0
   19.2796  -14.7961    0.0000 C   0  0  0  0  0  0  0  0  0  0  0  0
   18.2537  -10.0436    0.0000 C   0  0  0  0  0  0  0  0  0  0  0  0
   18.2545   -8.0918    0.0000 C   0  0  0  0  0  0  0  0  0  0  0  0
   14.6520  -14.3317    0.0000 C   0  0  0  0  0  0  0  0  0  0  0  0
   16.3351  -13.3668    0.0000 C   0  0  0  0  0  0  0  0  0  0  0  0
   17.5905  -11.8686    0.0000 N   0  0  0  0  0  0  0  0  0  0  0  0
   17.5963  -15.7614    0.0000 O   0  0  0  0  0  0  0  0  0  0  0  0
   20.9695  -15.7718    0.0000 O   0  0  0  0  0  0  0  0  0  0  0  0
   20.1804   -7.7471    0.0000 O   0  0  0  0  0  0  0  0  0  0  0  0
   17.5897   -6.2514    0.0000 O   0  0  0  0  0  0  0  0  0  0  0  0
   12.7357   -3.4489    0.0000 O   0  0  0  0  0  0  0  0  0  0  0  0
   12.7320  -14.6653    0.0000 N   0  0  0  0  0  0  0  0  0  0  0  0
    9.3635  -16.6250    0.0000 O   0  0  0  0  0  0  0  0  0  0  0  0
   11.0409  -19.5457    0.0000 O   0  0  0  0  0  0  0  0  0  0  0  0
    7.2068  -10.0332    0.0000 C   0  0  0  0  0  0  0  0  0  0  0  0
   10.8094   -3.7934    0.0000 C   0  0  0  0  0  0  0  0  0  0  0  0
    7.2008   -8.0932    0.0000 O   0  0  0  0  0  0  0  0  0  0  0  0
    9.1195   -4.7700    0.0000 O   0  0  0  0  0  0  0  0  0  0  0  0
    7.8702   -6.2566    0.0000 C   0  0  0  0  0  0  0  0  0  0  0  0
  1  2  1  0
  3  4  1  0
  4  5  2  0
  4  6  1  0
  7  8  1  0
  9 10  1  0
 11 12  1  0
 13 14  1  0
 14 15  1  0
 11 15  1  0
  9 15  1  0
 10 16  1  0
 10 17  2  0
 12 18  2  0
 12 19  1  0
  7 19  1  0
  8 20  1  0
 13 21  1  0
  3 21  1  0
  1 21  1  0
  2 22  1  0
  2 23  2  0
  6 24  1  0
 20 25  1  0
 24 26  1  0
 25 27  1  0
 26 28  1  0
 27 28  1  0
M  END
>  <logK_Eu_z=3.0_T=25_I=1.0>  (240) 
9.89

$$$$
***** 2-Ethyl-2-hydroxy-3-methylbutanoic.MOL2
     RDKit          2D

 10  9  0  0  0  0  0  0  0  0999 V2000
   11.3101  -10.1869    0.0000 C   0  0  0  0  0  0  0  0  0  0  0  0
   12.1291   -8.7695    0.0000 C   0  0  0  0  0  0  0  0  0  0  0  0
   13.7567   -8.7744    0.0000 C   0  0  0  0  0  0  0  0  0  0  0  0
   15.3788   -8.7698    0.0000 C   0  0  0  0  0  0  0  0  0  0  0  0
   13.7612  -10.3963    0.0000 C   0  0  0  0  0  0  0  0  0  0  0  0
   15.1692  -11.2208    0.0000 C   0  0  0  0  0  0  0  0  0  0  0  0
   11.3111   -7.3526    0.0000 C   0  0  0  0  0  0  0  0  0  0  0  0
   13.7466   -7.1428    0.0000 O   0  0  0  0  0  0  0  0  0  0  0  0
   16.1968  -10.1867    0.0000 O   0  0  0  0  0  0  0  0  0  0  0  0
   16.2033   -7.3618    0.0000 O   0  0  0  0  0  0  0  0  0  0  0  0
  1  2  1  0
  2  3  1  0
  3  4  1  0
  3  5  1  0
  5  6  1  0
  2  7  1  0
  3  8  1  0
  4  9  1  0
  4 10  2  0
M  END
>  <logK_Eu_z=3.0_T=25_I=1.0>  (241) 
2.62

$$$$
***** ATP.MOL2
     RDKit          2D

 31 33  0  0  1  0  0  0  0  0999 V2000
   14.6483   -9.9926    0.0000 C   0  0  0  0  0  0  0  0  0  0  0  0
   16.7572  -10.6761    0.0000 C   0  0  0  0  0  0  0  0  0  0  0  0
   17.4407  -12.8013    0.0000 C   0  0  0  0  0  0  0  0  0  0  0  0
   19.6692  -12.8013    0.0000 C   0  0  0  0  0  0  0  0  0  0  0  0
   20.3673  -10.6761    0.0000 C   0  0  0  0  0  0  0  0  0  0  0  0
   18.5545   -9.3694    0.0000 O   0  0  0  0  0  0  0  0  0  0  0  0
   16.1331  -14.5987    0.0000 O   0  0  0  0  0  0  0  0  0  0  0  0
   20.9914  -14.5987    0.0000 O   0  0  0  0  0  0  0  0  0  0  0  0
   22.4771   -9.9926    0.0000 N   0  0  0  0  0  0  0  0  0  0  0  0
   24.2899  -11.3001    0.0000 C   0  0  0  0  0  0  0  0  0  0  0  0
   26.0872   -9.9926    0.0000 N   0  0  0  0  0  0  0  0  0  0  0  0
   23.1752   -7.8845    0.0000 C   0  0  0  0  0  0  0  0  0  0  0  0
   25.4038   -7.8845    0.0000 C   0  0  0  0  0  0  0  0  0  0  0  0
   26.5185   -5.9529    0.0000 C   0  0  0  0  0  0  0  0  0  0  0  0
   28.7462   -5.9529    0.0000 N   0  0  0  0  0  0  0  0  0  0  0  0
   25.4038   -4.0213    0.0000 N   0  0  0  0  0  0  0  0  0  0  0  0
   23.1752   -4.0213    0.0000 C   0  0  0  0  0  0  0  0  0  0  0  0
   22.0614   -5.9529    0.0000 N   0  0  0  0  0  0  0  0  0  0  0  0
   12.9990  -11.4783    0.0000 O   0  0  0  0  0  0  0  0  0  0  0  0
   10.8746  -10.7949    0.0000 P   0  0  0  0  0  0  0  0  0  0  0  0
    8.7648  -10.0968    0.0000 O   0  0  0  0  0  0  0  0  0  0  0  0
    7.1009  -11.5980    0.0000 P   0  0  0  0  0  0  0  0  0  0  0  0
    5.4517  -13.0837    0.0000 O   0  0  0  0  0  0  0  0  0  0  0  0
    3.3272  -12.4002    0.0000 P   0  0  0  0  0  0  0  0  0  0  0  0
    4.0107  -10.2749    0.0000 O   0  0  0  0  0  0  0  0  0  0  0  0
    2.6438  -14.5091    0.0000 O   0  0  0  0  0  0  0  0  0  0  0  0
    1.2028  -11.7013    0.0000 O   0  0  0  0  0  0  0  0  0  0  0  0
    5.6152   -9.9332    0.0000 O   0  0  0  0  0  0  0  0  0  0  0  0
    8.5866  -13.2464    0.0000 O   0  0  0  0  0  0  0  0  0  0  0  0
   10.1911  -12.9046    0.0000 O   0  0  0  0  0  0  0  0  0  0  0  0
   11.5727   -8.6868    0.0000 O   0  0  0  0  0  0  0  0  0  0  0  0
  2  1  1  1
  2  3  1  0
  3  4  1  0
  2  6  1  0
  5  6  1  0
  5  4  1  0
  3  7  1  0
  4  8  1  0
  5  9  1  1
  9 10  1  0
 10 11  2  0
  9 12  1  0
 12 13  2  0
 13 11  1  0
 13 14  1  0
 14 15  1  0
 14 16  2  0
 16 17  1  0
 17 18  2  0
 18 12  1  0
  1 19  1  0
 19 20  1  0
 20 21  1  0
 21 22  1  0
 22 23  1  0
 23 24  1  0
 24 25  1  0
 24 26  2  0
 24 27  1  0
 22 28  2  0
 22 29  1  0
 20 30  2  0
 20 31  1  0
M  END
>  <logK_Eu_z=3.0_T=25_I=1.0>  (242) 
6.63

$$$$
***** ADP.MOL2
     RDKit          2D

 27 29  0  0  0  0  0  0  0  0999 V2000
    8.7927   -9.1990    0.0000 O   0  0  0  0  0  0  0  0  0  0  0  0
    8.4109  -11.6094    0.0000 O   0  0  0  0  0  0  0  0  0  0  0  0
    9.9467   -9.7129    0.0000 O   0  0  0  0  0  0  0  0  0  0  0  0
   10.3075  -13.1452    0.0000 O   0  0  0  0  0  0  0  0  0  0  0  0
   23.5460  -10.5328    0.0000 N   0  0  0  0  0  0  0  0  0  0  0  0
   22.6832  -12.0272    0.0000 C   0  0  0  0  0  0  0  0  0  0  0  0
   22.6832   -9.0384    0.0000 C   0  0  0  0  0  0  0  0  0  0  0  0
   20.9576  -12.0272    0.0000 N   0  0  0  0  0  0  0  0  0  0  0  0
   20.9576   -9.0384    0.0000 C   0  0  0  0  0  0  0  0  0  0  0  0
   20.0947  -10.5328    0.0000 C   0  0  0  0  0  0  0  0  0  0  0  0
   19.8029   -7.7560    0.0000 N   0  0  0  0  0  0  0  0  0  0  0  0
   18.4068  -10.1740    0.0000 N   0  0  0  0  0  0  0  0  0  0  0  0
   23.5460   -7.5439    0.0000 N   0  0  0  0  0  0  0  0  0  0  0  0
   18.2265   -8.4578    0.0000 C   0  0  0  0  0  0  0  0  0  0  0  0
   17.1244  -11.3287    0.0000 C   0  0  0  0  0  0  0  0  0  0  0  0
   17.3048  -13.0448    0.0000 C   0  0  0  0  0  0  0  0  0  0  0  0
   15.7284  -13.7467    0.0000 C   0  0  0  0  0  0  0  0  0  0  0  0
   14.5737  -12.4643    0.0000 C   0  0  0  0  0  0  0  0  0  0  0  0
   12.8575  -12.6447    0.0000 C   0  0  0  0  0  0  0  0  0  0  0  0
   15.4365  -10.9699    0.0000 O   0  0  0  0  0  0  0  0  0  0  0  0
   18.7993  -13.9077    0.0000 O   0  0  0  0  0  0  0  0  0  0  0  0
   15.3696  -15.4346    0.0000 O   0  0  0  0  0  0  0  0  0  0  0  0
   11.8432  -11.2486    0.0000 O   0  0  0  0  0  0  0  0  0  0  0  0
   10.1271  -11.4290    0.0000 P   0  0  0  0  0  0  0  0  0  0  0  0
    7.3966  -10.2133    0.0000 P   0  0  0  0  0  0  0  0  0  0  0  0
    6.0006  -11.2276    0.0000 O   0  0  0  0  0  0  0  0  0  0  0  0
    6.3823   -8.8173    0.0000 O   0  0  0  0  0  0  0  0  0  0  0  0
  6  5  2  0
  7  5  1  0
  8  6  1  0
  9  7  2  0
 10  8  2  0
 10  9  1  0
  9 11  1  0
 10 12  1  0
  7 13  1  0
 11 14  2  0
 12 14  1  0
 12 15  1  0
 15 16  1  0
 16 17  1  0
 17 18  1  0
 18 19  1  0
 18 20  1  0
 20 15  1  0
 16 21  1  0
 17 22  1  0
 19 23  1  0
 23 24  1  0
  4 24  1  0
  3 24  2  0
  2 24  1  0
  2 25  1  0
  1 25  1  0
 25 26  2  0
 25 27  1  0
M  END
>  <logK_Eu_z=3.0_T=25_I=1.0>  (243) 
5.75

$$$$
***** AMP.MOL2
     RDKit          2D

 23 25  0  0  0  0  0  0  0  0999 V2000
   18.3911   -9.2403    0.0000 N   0  0  0  0  0  0  0  0  0  0  0  0
   18.3911  -10.5703    0.0000 C   0  0  0  0  0  0  0  0  0  0  0  0
   17.2393   -8.5753    0.0000 C   0  0  0  0  0  0  0  0  0  0  0  0
   17.2393  -11.2353    0.0000 N   0  0  0  0  0  0  0  0  0  0  0  0
   16.0875   -9.2403    0.0000 C   0  0  0  0  0  0  0  0  0  0  0  0
   16.0875  -10.5703    0.0000 C   0  0  0  0  0  0  0  0  0  0  0  0
   17.2393   -7.2453    0.0000 N   0  0  0  0  0  0  0  0  0  0  0  0
   14.8226  -10.9813    0.0000 N   0  0  0  0  0  0  0  0  0  0  0  0
   14.8226   -8.8293    0.0000 N   0  0  0  0  0  0  0  0  0  0  0  0
   14.0409   -9.9053    0.0000 C   0  0  0  0  0  0  0  0  0  0  0  0
   14.4116  -12.2462    0.0000 C   0  0  0  0  0  0  0  0  0  0  0  0
   15.1934  -13.3222    0.0000 C   0  0  0  0  0  0  0  0  0  0  0  0
   14.4116  -14.3982    0.0000 C   0  0  0  0  0  0  0  0  0  0  0  0
   13.1467  -13.9872    0.0000 C   0  0  0  0  0  0  0  0  0  0  0  0
   12.0707  -14.7690    0.0000 C   0  0  0  0  0  0  0  0  0  0  0  0
   13.1467  -12.6572    0.0000 O   0  0  0  0  0  0  0  0  0  0  0  0
   16.5234  -13.3222    0.0000 O   0  0  0  0  0  0  0  0  0  0  0  0
   14.8226  -15.6631    0.0000 O   0  0  0  0  0  0  0  0  0  0  0  0
   10.8557  -14.2280    0.0000 O   0  0  0  0  0  0  0  0  0  0  0  0
    9.7797  -15.0098    0.0000 P   0  0  0  0  0  0  0  0  0  0  0  0
   10.5615  -16.0858    0.0000 O   0  0  0  0  0  0  0  0  0  0  0  0
    8.9980  -13.9338    0.0000 O   0  0  0  0  0  0  0  0  0  0  0  0
    8.7037  -15.7915    0.0000 O   0  0  0  0  0  0  0  0  0  0  0  0
  2  1  2  0
  3  1  1  0
  4  2  1  0
  5  3  2  0
  6  4  2  0
  6  5  1  0
  3  7  1  0
  6  8  1  0
  5  9  1  0
  9 10  2  0
  8 10  1  0
  8 11  1  0
 11 12  1  0
 12 13  1  0
 13 14  1  0
 14 15  1  0
 14 16  1  0
 11 16  1  0
 12 17  1  0
 13 18  1  0
 15 19  1  0
 19 20  1  0
 20 21  1  0
 20 22  2  0
 20 23  1  0
M  END
>  <logK_Eu_z=3.0_T=25_I=1.0>  (244) 
4.47

$$$$
