
     RDKit          2D

 77 84  0  0  0  0  0  0  0  0999 V2000
    3.7500   -1.2990    0.0000 O   0  0  0  0  0  0  0  0  0  0  0  0
    3.0000    0.0000    0.0000 C   0  0  0  0  0  0  0  0  0  0  0  0
    1.5000    0.0000    0.0000 C   0  0  0  0  0  0  0  0  0  0  0  0
    0.7500   -1.2990    0.0000 O   0  0  0  0  0  0  0  0  0  0  0  0
   -0.7500   -1.2990    0.0000 C   0  0  0  0  0  0  0  0  0  0  0  0
   -1.9086   -2.2517    0.0000 O   0  0  0  0  0  0  0  0  0  0  0  0
   -3.2187   -2.9822    0.0000 C   0  0  0  0  0  0  0  0  0  0  0  0
   -5.1394   -3.2717    0.0000 C   0  0  0  0  0  0  0  0  0  0  0  0
   -4.2826   -4.9242    0.0000 O   0  0  0  0  0  0  0  0  0  0  0  0
   -5.7002   -3.3562    0.0000 C   0  0  0  0  0  0  0  0  0  0  0  0
   -6.0318   -5.1879    0.0000 O   0  0  0  0  0  0  0  0  0  0  0  0
   -7.6208   -3.6457    0.0000 C   0  0  0  0  0  0  0  0  0  0  0  0
   -6.2013   -3.1609    0.0000 O   0  0  0  0  0  0  0  0  0  0  0  0
   -4.7181   -2.9373    0.0000 C   0  0  0  0  0  0  0  0  0  0  0  0
   -4.8078   -1.4400    0.0000 C   0  0  0  0  0  0  0  0  0  0  0  0
   -6.1493   -0.7690    0.0000 O   0  0  0  0  0  0  0  0  0  0  0  0
   -9.0880   -3.3338    0.0000 O   0  0  0  0  0  0  0  0  0  0  0  0
  -10.4760   -2.7650    0.0000 C   0  0  0  0  0  0  0  0  0  0  0  0
  -11.7401   -1.9575    0.0000 C   0  0  0  0  0  0  0  0  0  0  0  0
  -12.6576   -3.1441    0.0000 O   0  0  0  0  0  0  0  0  0  0  0  0
  -12.8396   -0.9372    0.0000 C   0  0  0  0  0  0  0  0  0  0  0  0
  -13.9544   -1.9409    0.0000 O   0  0  0  0  0  0  0  0  0  0  0  0
  -13.7394    0.2630    0.0000 C   0  0  0  0  0  0  0  0  0  0  0  0
  -12.4753   -0.5445    0.0000 O   0  0  0  0  0  0  0  0  0  0  0  0
  -11.3757   -1.5648    0.0000 C   0  0  0  0  0  0  0  0  0  0  0  0
  -10.2610   -0.5611    0.0000 C   0  0  0  0  0  0  0  0  0  0  0  0
   -8.8344   -1.0246    0.0000 O   0  0  0  0  0  0  0  0  0  0  0  0
  -14.4103    1.6046    0.0000 O   0  0  0  0  0  0  0  0  0  0  0  0
  -14.8310    3.0444    0.0000 C   0  0  0  0  0  0  0  0  0  0  0  0
  -14.9878    4.5362    0.0000 C   0  0  0  0  0  0  0  0  0  0  0  0
  -16.4876    4.5137    0.0000 O   0  0  0  0  0  0  0  0  0  0  0  0
  -14.8757    6.0320    0.0000 C   0  0  0  0  0  0  0  0  0  0  0  0
  -16.3554    6.2777    0.0000 O   0  0  0  0  0  0  0  0  0  0  0  0
  -14.4983    7.4837    0.0000 C   0  0  0  0  0  0  0  0  0  0  0  0
  -14.3415    5.9919    0.0000 O   0  0  0  0  0  0  0  0  0  0  0  0
  -14.4536    4.4961    0.0000 C   0  0  0  0  0  0  0  0  0  0  0  0
  -12.9739    4.2504    0.0000 C   0  0  0  0  0  0  0  0  0  0  0  0
  -12.4468    2.8460    0.0000 O   0  0  0  0  0  0  0  0  0  0  0  0
  -13.8678    8.8447    0.0000 O   0  0  0  0  0  0  0  0  0  0  0  0
  -13.0043   10.0713    0.0000 C   0  0  0  0  0  0  0  0  0  0  0  0
  -11.9358   11.1240    0.0000 C   0  0  0  0  0  0  0  0  0  0  0  0
  -12.8884   12.2827    0.0000 O   0  0  0  0  0  0  0  0  0  0  0  0
  -10.6964   11.9690    0.0000 C   0  0  0  0  0  0  0  0  0  0  0  0
  -11.4269   13.2791    0.0000 O   0  0  0  0  0  0  0  0  0  0  0  0
   -9.3261   12.5791    0.0000 C   0  0  0  0  0  0  0  0  0  0  0  0
  -10.3947   11.5264    0.0000 O   0  0  0  0  0  0  0  0  0  0  0  0
  -11.6340   10.6814    0.0000 C   0  0  0  0  0  0  0  0  0  0  0  0
  -10.9035    9.3713    0.0000 C   0  0  0  0  0  0  0  0  0  0  0  0
  -11.6729    8.0836    0.0000 O   0  0  0  0  0  0  0  0  0  0  0  0
   -7.8689   12.9347    0.0000 O   0  0  0  0  0  0  0  0  0  0  0  0
   -6.3715   13.0244    0.0000 C   0  0  0  0  0  0  0  0  0  0  0  0
   -4.8823   12.8453    0.0000 C   0  0  0  0  0  0  0  0  0  0  0  0
   -4.5704   14.3126    0.0000 O   0  0  0  0  0  0  0  0  0  0  0  0
   -3.4489   12.4032    0.0000 C   0  0  0  0  0  0  0  0  0  0  0  0
   -2.8801   13.7912    0.0000 O   0  0  0  0  0  0  0  0  0  0  0  0
   -2.1175   11.7122    0.0000 C   0  0  0  0  0  0  0  0  0  0  0  0
   -3.6068   11.8913    0.0000 O   0  0  0  0  0  0  0  0  0  0  0  0
   -5.0402   12.3335    0.0000 C   0  0  0  0  0  0  0  0  0  0  0  0
   -5.6090   10.9455    0.0000 C   0  0  0  0  0  0  0  0  0  0  0  0
   -7.0954   10.7442    0.0000 O   0  0  0  0  0  0  0  0  0  0  0  0
   -0.9309   10.7947    0.0000 O   0  0  0  0  0  0  0  0  0  0  0  0
    0.0728    9.6799    0.0000 C   0  0  0  0  0  0  0  0  0  0  0  0
    0.8613    8.4039    0.0000 C   0  0  0  0  0  0  0  0  0  0  0  0
    2.2029    9.0749    0.0000 O   0  0  0  0  0  0  0  0  0  0  0  0
    1.4093    7.0076    0.0000 C   0  0  0  0  0  0  0  0  0  0  0  0
    2.8491    7.4283    0.0000 O   0  0  0  0  0  0  0  0  0  0  0  0
    1.6992    5.5359    0.0000 C   0  0  0  0  0  0  0  0  0  0  0  0
    0.9107    6.8119    0.0000 O   0  0  0  0  0  0  0  0  0  0  0  0
    0.3626    8.2082    0.0000 C   0  0  0  0  0  0  0  0  0  0  0  0
   -1.0772    7.7876    0.0000 C   0  0  0  0  0  0  0  0  0  0  0  0
   -2.1614    8.8242    0.0000 O   0  0  0  0  0  0  0  0  0  0  0  0
    1.7216    4.0361    0.0000 O   0  0  0  0  0  0  0  0  0  0  0  0
    0.7500    1.2990    0.0000 C   0  0  0  0  0  0  0  0  0  0  0  0
   -0.7500    1.2990    0.0000 C   0  0  0  0  0  0  0  0  0  0  0  0
   -1.5000    2.5981    0.0000 O   0  0  0  0  0  0  0  0  0  0  0  0
   -1.5000    0.0000    0.0000 C   0  0  0  0  0  0  0  0  0  0  0  0
   -3.0000    0.0000    0.0000 O   0  0  0  0  0  0  0  0  0  0  0  0
  1  2  1  0
  2  3  1  0
  3  4  1  0
  4  5  1  0
  5  6  1  0
  6  7  1  0
  7  8  1  0
  8  9  1  0
  8 10  1  0
 10 11  1  0
 10 12  1  0
 12 13  1  0
 13 14  1  0
 14 15  1  0
 15 16  1  0
 12 17  1  0
 17 18  1  0
 18 19  1  0
 19 20  1  0
 19 21  1  0
 21 22  1  0
 21 23  1  0
 23 24  1  0
 24 25  1  0
 25 26  1  0
 26 27  1  0
 23 28  1  0
 28 29  1  0
 29 30  1  0
 30 31  1  0
 30 32  1  0
 32 33  1  0
 32 34  1  0
 34 35  1  0
 35 36  1  0
 36 37  1  0
 37 38  1  0
 34 39  1  0
 39 40  1  0
 40 41  1  0
 41 42  1  0
 41 43  1  0
 43 44  1  0
 43 45  1  0
 45 46  1  0
 46 47  1  0
 47 48  1  0
 48 49  1  0
 45 50  1  0
 50 51  1  0
 51 52  1  0
 52 53  1  0
 52 54  1  0
 54 55  1  0
 54 56  1  0
 56 57  1  0
 57 58  1  0
 58 59  1  0
 59 60  1  0
 56 61  1  0
 61 62  1  0
 62 63  1  0
 63 64  1  0
 63 65  1  0
 65 66  1  0
 65 67  1  0
 67 68  1  0
 68 69  1  0
 69 70  1  0
 70 71  1  0
 67 72  1  0
 72 73  1  0
 73 74  1  0
 74 75  1  0
 74 76  1  0
 76 77  1  0
 73  3  1  0
 76  5  1  0
 14  7  1  0
 25 18  1  0
 36 29  1  0
 47 40  1  0
 58 51  1  0
 69 62  1  0
M  END
>  <Name>  (1) 
Cycloheptaamylose

>  <logK_La_z=3.0_T=25_I=0.1>  (1) 
3.77

$$$$

     RDKit          2D

  9  8  0  0  0  0  0  0  0  0999 V2000
    0.0000    0.0000    0.0000 C   0  0  0  0  0  0  0  0  0  0  0  0
    1.2990    0.7500    0.0000 C   0  0  0  0  0  0  0  0  0  0  0  0
    1.2990    2.2500    0.0000 O   0  0  0  0  0  0  0  0  0  0  0  0
    2.5981   -0.0000    0.0000 C   0  0  0  0  0  0  0  0  0  0  0  0
    3.8971   -0.7500    0.0000 C   0  0  0  0  0  0  0  0  0  0  0  0
    3.3481    1.2990    0.0000 O   0  0  0  0  0  0  0  0  0  0  0  0
    1.8481   -1.2990    0.0000 C   0  0  0  0  0  0  0  0  0  0  0  0
    2.5981   -2.5981    0.0000 O   0  0  0  0  0  0  0  0  0  0  0  0
    0.3481   -1.2990    0.0000 O   0  0  0  0  0  0  0  0  0  0  0  0
  1  2  1  0
  2  3  1  0
  2  4  1  0
  4  5  1  0
  4  6  1  0
  4  7  1  0
  7  8  1  0
  7  9  2  0
M  END
>  <Name>  (2) 
2,3-Dihydroxy-2-methylbutanoic acid

>  <logK_La_z=3.0_T=25_I=0.1>  (2) 
2.57

>  <logK_La_z=3.0_T=25_I=0.5>  (2) 
2.42

$$$$

     RDKit          2D

 22 20  0  0  0  0  0  0  0  0999 V2000
    0.0000    0.0000    0.0000 C   0  0  0  0  0  0  0  0  0  0  0  0
    1.2990    0.7500    0.0000 C   0  0  0  0  0  0  0  0  0  0  0  0
    2.5981   -0.0000    0.0000 C   0  0  0  0  0  0  0  0  0  0  0  0
    3.8971   -0.7500    0.0000 C   0  0  0  0  0  0  0  0  0  0  0  0
    3.8971   -2.2500    0.0000 C   0  0  0  0  0  0  0  0  0  0  0  0
    3.3481    1.2990    0.0000 C   0  0  0  0  0  0  0  0  0  0  0  0
    4.8481    1.2990    0.0000 O   0  0  0  0  0  0  0  0  0  0  0  0
    2.5981    2.5981    0.0000 O   0  0  0  0  0  0  0  0  0  0  0  0
    1.8481   -1.2990    0.0000 C   0  0  0  0  0  0  0  0  0  0  0  0
    2.5981   -2.5981    0.0000 O   0  0  0  0  0  0  0  0  0  0  0  0
    0.3481   -1.2990    0.0000 O   0  0  0  0  0  0  0  0  0  0  0  0
    5.8481    0.0000    0.0000 C   0  0  0  0  0  0  0  0  0  0  0  0
    7.1471    0.7500    0.0000 C   0  0  0  0  0  0  0  0  0  0  0  0
    8.4462   -0.0000    0.0000 C   0  0  0  0  0  0  0  0  0  0  0  0
    9.7452   -0.7500    0.0000 C   0  0  0  0  0  0  0  0  0  0  0  0
    9.7452   -2.2500    0.0000 C   0  0  0  0  0  0  0  0  0  0  0  0
    9.1962    1.2990    0.0000 C   0  0  0  0  0  0  0  0  0  0  0  0
   10.6962    1.2990    0.0000 O   0  0  0  0  0  0  0  0  0  0  0  0
    8.4462    2.5981    0.0000 O   0  0  0  0  0  0  0  0  0  0  0  0
    7.6962   -1.2990    0.0000 C   0  0  0  0  0  0  0  0  0  0  0  0
    8.4462   -2.5981    0.0000 O   0  0  0  0  0  0  0  0  0  0  0  0
    6.1962   -1.2990    0.0000 O   0  0  0  0  0  0  0  0  0  0  0  0
  1  2  1  0
  2  3  1  0
  3  4  1  0
  4  5  1  0
  3  6  1  0
  6  7  1  0
  6  8  2  0
  3  9  1  0
  9 10  1  0
  9 11  2  0
 12 13  1  0
 13 14  1  0
 14 15  1  0
 15 16  1  0
 14 17  1  0
 17 18  1  0
 17 19  2  0
 14 20  1  0
 20 21  1  0
 20 22  2  0
M  END
>  <Name>  (3) 
Diethylpropanedioic acid (Diethylmalonic acid)

>  <logK_La_z=3.0_T=25_I=0.1>  (3) 
3.61

$$$$

     RDKit          2D

 10 10  0  0  0  0  0  0  0  0999 V2000
    3.0000    0.0000    0.0000 O   0  0  0  0  0  0  0  0  0  0  0  0
    1.5000    0.0000    0.0000 C   0  0  0  0  0  0  0  0  0  0  0  0
    0.7500   -1.2990    0.0000 C   0  0  0  0  0  0  0  0  0  0  0  0
   -0.7500   -1.2990    0.0000 C   0  0  0  0  0  0  0  0  0  0  0  0
   -1.5000   -2.5981    0.0000 Cl  0  0  0  0  0  0  0  0  0  0  0  0
   -1.5000    0.0000    0.0000 C   0  0  0  0  0  0  0  0  0  0  0  0
   -0.7500    1.2990    0.0000 C   0  0  0  0  0  0  0  0  0  0  0  0
    0.7500    1.2990    0.0000 C   0  0  0  0  0  0  0  0  0  0  0  0
    1.5000    2.5981    0.0000 C   0  0  0  0  0  0  0  0  0  0  0  0
    3.0000    2.5981    0.0000 O   0  0  0  0  0  0  0  0  0  0  0  0
  1  2  1  0
  2  3  2  0
  3  4  1  0
  4  5  1  0
  4  6  2  0
  6  7  1  0
  7  8  2  0
  8  9  1  0
  9 10  2  0
  8  2  1  0
M  END
>  <Name>  (4) 
4-Chlorosalicylaldehyde

>  <logK_La_z=3.0_T=25_I=0.1>  (4) 
3.3800000000000003

$$$$

     RDKit          2D

  9  8  0  0  0  0  0  0  0  0999 V2000
    5.1962   -0.0000    0.0000 O   0  0  0  0  0  0  0  0  0  0  0  0
    3.8971    0.7500    0.0000 C   0  0  0  0  0  0  0  0  0  0  0  0
    3.8971    2.2500    0.0000 O   0  0  0  0  0  0  0  0  0  0  0  0
    2.5981   -0.0000    0.0000 C   0  0  0  0  0  0  0  0  0  0  0  0
    1.2990    0.7500    0.0000 C   0  0  0  0  0  0  0  0  0  0  0  0
    0.0000    0.0000    0.0000 C   0  0  0  0  0  0  0  0  0  0  0  0
    1.2990    2.2500    0.0000 C   0  0  0  0  0  0  0  0  0  0  0  0
    2.5981    3.0000    0.0000 O   0  0  0  0  0  0  0  0  0  0  0  0
   -0.0000    3.0000    0.0000 O   0  0  0  0  0  0  0  0  0  0  0  0
  1  2  1  0
  2  3  2  0
  2  4  1  0
  4  5  1  0
  5  6  2  0
  5  7  1  0
  7  8  1  0
  7  9  2  0
M  END
>  <Name>  (5) 
Methylenesuccinic acid

>  <logK_La_z=3.0_T=25_I=0.1>  (5) 
4.05

$$$$

     RDKit          2D

  9  9  0  0  0  0  0  0  0  0999 V2000
    3.7500   -1.2990    0.0000 O   0  0  0  0  0  0  0  0  0  0  0  0
    3.0000    0.0000    0.0000 C   0  0  0  0  0  0  0  0  0  0  0  0
    3.7500    1.2990    0.0000 O   0  0  0  0  0  0  0  0  0  0  0  0
    1.5000    0.0000    0.0000 C   0  0  0  0  0  0  0  0  0  0  0  0
    0.7500   -1.2990    0.0000 C   0  0  0  0  0  0  0  0  0  0  0  0
   -0.7500   -1.2990    0.0000 C   0  0  0  0  0  0  0  0  0  0  0  0
   -1.5000    0.0000    0.0000 C   0  0  0  0  0  0  0  0  0  0  0  0
   -0.7500    1.2990    0.0000 C   0  0  0  0  0  0  0  0  0  0  0  0
    0.7500    1.2990    0.0000 C   0  0  0  0  0  0  0  0  0  0  0  0
  1  2  1  0
  2  3  2  0
  2  4  1  0
  4  5  2  0
  5  6  1  0
  6  7  2  0
  7  8  1  0
  8  9  2  0
  9  4  1  0
M  END
>  <Name>  (6) 
Benzenecarboxylic acid

>  <logK_La_z=3.0_T=25_I=0.1>  (6) 
1.92

$$$$

     RDKit          2D

 47 48  0  0  0  0  0  0  0  0999 V2000
    6.0000   -2.5981    0.0000 C   0  0  0  0  0  0  0  0  0  0  0  0
    5.2500   -1.2990    0.0000 C   0  0  0  0  0  0  0  0  0  0  0  0
    6.0000    0.0000    0.0000 O   0  0  0  0  0  0  0  0  0  0  0  0
    3.7500   -1.2990    0.0000 O   0  0  0  0  0  0  0  0  0  0  0  0
    3.0000    0.0000    0.0000 C   0  0  0  0  0  0  0  0  0  0  0  0
    1.5000    0.0000    0.0000 C   0  0  0  0  0  0  0  0  0  0  0  0
    0.7500   -1.2990    0.0000 O   0  0  0  0  0  0  0  0  0  0  0  0
   -0.7500   -1.2990    0.0000 C   0  0  0  0  0  0  0  0  0  0  0  0
   -1.5000   -2.5981    0.0000 O   0  0  0  0  0  0  0  0  0  0  0  0
   -0.7500   -3.8971    0.0000 C   0  0  0  0  0  0  0  0  0  0  0  0
   -1.5000   -5.1962    0.0000 C   0  0  0  0  0  0  0  0  0  0  0  0
    0.7500   -3.8971    0.0000 O   0  0  0  0  0  0  0  0  0  0  0  0
   -1.5000    0.0000    0.0000 C   0  0  0  0  0  0  0  0  0  0  0  0
   -3.0000    0.0000    0.0000 O   0  0  0  0  0  0  0  0  0  0  0  0
   -3.7500   -1.2990    0.0000 C   0  0  0  0  0  0  0  0  0  0  0  0
   -5.2500   -1.2990    0.0000 C   0  0  0  0  0  0  0  0  0  0  0  0
   -3.0000   -2.5981    0.0000 O   0  0  0  0  0  0  0  0  0  0  0  0
   -0.7500    1.2990    0.0000 C   0  0  0  0  0  0  0  0  0  0  0  0
   -1.5000    2.5981    0.0000 O   0  0  0  0  0  0  0  0  0  0  0  0
   -3.0000    2.5981    0.0000 C   0  0  0  0  0  0  0  0  0  0  0  0
   -3.7500    3.8971    0.0000 C   0  0  0  0  0  0  0  0  0  0  0  0
   -3.7500    1.2990    0.0000 O   0  0  0  0  0  0  0  0  0  0  0  0
    0.7500    1.2990    0.0000 C   0  0  0  0  0  0  0  0  0  0  0  0
    1.5000    2.5981    0.0000 O   0  0  0  0  0  0  0  0  0  0  0  0
    0.7500    3.8971    0.0000 C   0  0  0  0  0  0  0  0  0  0  0  0
   -0.7500    3.8971    0.0000 O   0  0  0  0  0  0  0  0  0  0  0  0
   -1.5000    5.1962    0.0000 C   0  0  0  0  0  0  0  0  0  0  0  0
   -3.0000    5.1962    0.0000 C   0  0  0  0  0  0  0  0  0  0  0  0
   -3.7500    6.4952    0.0000 O   0  0  0  0  0  0  0  0  0  0  0  0
   -5.2500    6.4952    0.0000 C   0  0  0  0  0  0  0  0  0  0  0  0
   -6.0000    7.7942    0.0000 C   0  0  0  0  0  0  0  0  0  0  0  0
   -6.0000    5.1962    0.0000 O   0  0  0  0  0  0  0  0  0  0  0  0
   -0.7500    6.4952    0.0000 C   0  0  0  0  0  0  0  0  0  0  0  0
   -1.5000    7.7942    0.0000 O   0  0  0  0  0  0  0  0  0  0  0  0
   -3.0000    7.7942    0.0000 C   0  0  0  0  0  0  0  0  0  0  0  0
   -3.7500    9.0933    0.0000 C   0  0  0  0  0  0  0  0  0  0  0  0
   -3.5538    7.2208    0.0000 O   0  0  0  0  0  0  0  0  0  0  0  0
    0.7500    6.4952    0.0000 C   0  0  0  0  0  0  0  0  0  0  0  0
    1.5000    7.7942    0.0000 O   0  0  0  0  0  0  0  0  0  0  0  0
    0.7500    9.0933    0.0000 C   0  0  0  0  0  0  0  0  0  0  0  0
    1.5000   10.3923    0.0000 C   0  0  0  0  0  0  0  0  0  0  0  0
   -0.7500    9.0933    0.0000 O   0  0  0  0  0  0  0  0  0  0  0  0
    1.5000    5.1962    0.0000 C   0  0  0  0  0  0  0  0  0  0  0  0
    3.0000    5.1962    0.0000 O   0  0  0  0  0  0  0  0  0  0  0  0
    3.7500    6.4952    0.0000 C   0  0  0  0  0  0  0  0  0  0  0  0
    5.2500    6.4952    0.0000 C   0  0  0  0  0  0  0  0  0  0  0  0
    3.0000    7.7942    0.0000 O   0  0  0  0  0  0  0  0  0  0  0  0
  1  2  1  0
  2  3  2  0
  2  4  1  0
  4  5  1  0
  6  5  1  1
  6  7  1  0
  7  8  1  0
  8  9  1  6
  9 10  1  0
 10 11  1  0
 10 12  2  0
  8 13  1  0
 13 14  1  6
 14 15  1  0
 15 16  1  0
 15 17  2  0
 13 18  1  0
 18 19  1  1
 19 20  1  0
 20 21  1  0
 20 22  2  0
 18 23  1  0
 23 24  1  6
 25 24  1  6
 25 26  1  0
 26 27  1  0
 27 28  1  6
 28 29  1  0
 29 30  1  0
 30 31  1  0
 30 32  2  0
 27 33  1  0
 33 34  1  1
 34 35  1  0
 35 36  1  0
 35 37  2  0
 33 38  1  0
 38 39  1  6
 39 40  1  0
 40 41  1  0
 40 42  2  0
 38 43  1  0
 43 44  1  1
 44 45  1  0
 45 46  1  0
 45 47  2  0
 23  6  1  0
 43 25  1  0
M  END
>  <Name>  (7) 
Cyclooctaamylose

>  <logK_La_z=3.0_T=25_I=0.1>  (7) 
3.77

$$$$

     RDKit          2D

  9  8  0  0  0  0  0  0  0  0999 V2000
    1.2990    2.2500    0.0000 N   0  0  0  0  0  0  0  0  0  0  0  0
    1.2990    0.7500    0.0000 C   0  0  0  0  0  0  0  0  0  0  0  0
    0.0000    0.0000    0.0000 C   0  0  0  0  0  0  0  0  0  0  0  0
   -1.2990    0.7500    0.0000 C   0  0  0  0  0  0  0  0  0  0  0  0
   -2.5981    0.0000    0.0000 O   0  0  0  0  0  0  0  0  0  0  0  0
   -1.2990    2.2500    0.0000 O   0  0  0  0  0  0  0  0  0  0  0  0
    2.5981   -0.0000    0.0000 C   0  0  0  0  0  0  0  0  0  0  0  0
    3.8971    0.7500    0.0000 O   0  0  0  0  0  0  0  0  0  0  0  0
    2.5981   -1.5000    0.0000 O   0  0  0  0  0  0  0  0  0  0  0  0
  1  2  1  0
  2  3  1  0
  3  4  1  0
  4  5  1  0
  4  6  2  0
  2  7  1  0
  7  8  1  0
  7  9  2  0
M  END
>  <Name>  (8) 
Aminobutanedioic acid

>  <logK_La_z=3.0_T=25_I=0.1>  (8) 
5.54

$$$$

     RDKit          2D

  7  6  0  0  0  0  0  0  0  0999 V2000
    0.0000    0.0000    0.0000 C   0  0  0  0  0  0  0  0  0  0  0  0
    1.2990    0.7500    0.0000 O   0  0  0  0  0  0  0  0  0  0  0  0
    2.5981   -0.0000    0.0000 C   0  0  0  0  0  0  0  0  0  0  0  0
    2.5981   -1.5000    0.0000 O   0  0  0  0  0  0  0  0  0  0  0  0
    3.8971    0.7500    0.0000 C   0  0  0  0  0  0  0  0  0  0  0  0
    5.1962   -0.0000    0.0000 C   0  0  0  0  0  0  0  0  0  0  0  0
    6.4952    0.7500    0.0000 S   0  0  0  0  0  0  0  0  0  0  0  0
  1  2  1  0
  2  3  1  0
  3  4  2  0
  3  5  1  0
  5  6  1  0
  6  7  1  0
M  END
>  <Name>  (9) 
Methyl-3-mercaptopropionate

>  <logK_La_z=3.0_T=25_I=0.1>  (9) 
2.44

$$$$

     RDKit          2D

 12 12  0  0  0  0  0  0  0  0999 V2000
    3.7500   -1.2990    0.0000 O   0  0  0  0  0  0  0  0  0  0  0  0
    3.0000    0.0000    0.0000 C   0  0  0  0  0  0  0  0  0  0  0  0
    1.5000    0.0000    0.0000 C   0  0  0  0  0  0  0  0  0  0  0  0
    0.7500   -1.2990    0.0000 C   0  0  0  0  0  0  0  0  0  0  0  0
   -0.7500   -1.2990    0.0000 C   0  0  0  0  0  0  0  0  0  0  0  0
   -1.5000   -2.5981    0.0000 O   0  0  0  0  0  0  0  0  0  0  0  0
   -1.5000    0.0000    0.0000 C   0  0  0  0  0  0  0  0  0  0  0  0
   -0.7500    1.2990    0.0000 C   0  0  0  0  0  0  0  0  0  0  0  0
   -1.5000    2.5981    0.0000 C   0  0  0  0  0  0  0  0  0  0  0  0
   -0.7500    3.8971    0.0000 O   0  0  0  0  0  0  0  0  0  0  0  0
    0.7500    1.2990    0.0000 O   0  0  0  0  0  0  0  0  0  0  0  0
   -3.0000    0.0000    0.0000 O   0  0  0  0  0  0  0  0  0  0  0  0
  1  2  1  0
  2  3  1  0
  3  4  2  0
  4  5  1  0
  5  6  2  0
  5  7  1  0
  7  8  2  0
  8  9  1  0
  9 10  1  0
  8 11  1  0
  7 12  1  0
 11  3  1  0
M  END
>  <Name>  (10) 
3-Hydroxy-2,6-bis(hydroxymethyl)-4H-pyran-4-one

>  <logK_La_z=3.0_T=25_I=0.1>  (10) 
5.26

$$$$

     RDKit          2D

 10 10  0  0  0  0  0  0  0  0999 V2000
    3.0000    0.0000    0.0000 O   0  0  0  0  0  0  0  0  0  0  0  0
    1.5000    0.0000    0.0000 C   0  0  0  0  0  0  0  0  0  0  0  0
    0.7500   -1.2990    0.0000 C   0  0  0  0  0  0  0  0  0  0  0  0
    1.5000   -2.5981    0.0000 Cl  0  0  0  0  0  0  0  0  0  0  0  0
   -0.7500   -1.2990    0.0000 C   0  0  0  0  0  0  0  0  0  0  0  0
   -1.5000    0.0000    0.0000 C   0  0  0  0  0  0  0  0  0  0  0  0
   -0.7500    1.2990    0.0000 C   0  0  0  0  0  0  0  0  0  0  0  0
    0.7500    1.2990    0.0000 C   0  0  0  0  0  0  0  0  0  0  0  0
    1.5000    2.5981    0.0000 C   0  0  0  0  0  0  0  0  0  0  0  0
    3.0000    2.5981    0.0000 O   0  0  0  0  0  0  0  0  0  0  0  0
  1  2  1  0
  2  3  2  0
  3  4  1  0
  3  5  1  0
  5  6  2  0
  6  7  1  0
  7  8  2  0
  8  9  1  0
  9 10  2  0
  8  2  1  0
M  END
>  <Name>  (11) 
3-Chlorosalicylaldehyde

>  <logK_La_z=3.0_T=25_I=0.1>  (11) 
3.16

$$$$

     RDKit          2D

 13 12  0  0  0  0  0  0  0  0999 V2000
   -1.2990    0.7500    0.0000 O   0  0  0  0  0  0  0  0  0  0  0  0
    0.0000    0.0000    0.0000 C   0  0  0  0  0  0  0  0  0  0  0  0
    1.2990    0.7500    0.0000 C   0  0  0  0  0  0  0  0  0  0  0  0
    1.2990    2.2500    0.0000 O   0  0  0  0  0  0  0  0  0  0  0  0
    2.5981   -0.0000    0.0000 C   0  0  0  0  0  0  0  0  0  0  0  0
    2.5981   -1.5000    0.0000 O   0  0  0  0  0  0  0  0  0  0  0  0
    3.8971    0.7500    0.0000 C   0  0  0  0  0  0  0  0  0  0  0  0
    3.8971    2.2500    0.0000 O   0  0  0  0  0  0  0  0  0  0  0  0
    5.1962   -0.0000    0.0000 C   0  0  0  0  0  0  0  0  0  0  0  0
    5.1962   -1.5000    0.0000 O   0  0  0  0  0  0  0  0  0  0  0  0
    6.4952    0.7500    0.0000 C   0  0  0  0  0  0  0  0  0  0  0  0
    7.7942   -0.0000    0.0000 O   0  0  0  0  0  0  0  0  0  0  0  0
    6.4952    2.2500    0.0000 O   0  0  0  0  0  0  0  0  0  0  0  0
  1  2  1  0
  2  3  1  0
  3  4  1  1
  3  5  1  0
  5  6  1  6
  5  7  1  0
  7  8  1  6
  7  9  1  0
  9 10  1  6
  9 11  1  0
 11 12  1  0
 11 13  2  0
M  END
>  <Name>  (12) 
D-Gluconic acid

>  <logK_La_z=3.0_T=25_I=0.1>  (12) 
2.8266666666666667

$$$$

     RDKit          2D

  6  5  0  0  0  0  0  0  0  0999 V2000
    0.0000    0.0000    0.0000 C   0  0  0  0  0  0  0  0  0  0  0  0
    1.2990    0.7500    0.0000 C   0  0  0  0  0  0  0  0  0  0  0  0
    2.5981   -0.0000    0.0000 C   0  0  0  0  0  0  0  0  0  0  0  0
    1.2990    2.2500    0.0000 C   0  0  0  0  0  0  0  0  0  0  0  0
    2.5981    3.0000    0.0000 O   0  0  0  0  0  0  0  0  0  0  0  0
   -0.0000    3.0000    0.0000 O   0  0  0  0  0  0  0  0  0  0  0  0
  1  2  1  0
  2  3  2  0
  2  4  1  0
  4  5  1  0
  4  6  2  0
M  END
>  <Name>  (13) 
2-Methylpropenoic acid

>  <logK_La_z=3.0_T=25_I=0.1>  (13) 
2.27

$$$$

     RDKit          2D

 12 12  0  0  0  0  0  0  0  0999 V2000
    3.0000    0.0000    0.0000 O   0  0  0  0  0  0  0  0  0  0  0  0
    1.5000    0.0000    0.0000 C   0  0  0  0  0  0  0  0  0  0  0  0
    0.7500   -1.2990    0.0000 C   0  0  0  0  0  0  0  0  0  0  0  0
    1.5000   -2.5981    0.0000 C   0  0  0  0  0  0  0  0  0  0  0  0
    0.7500   -3.8971    0.0000 O   0  0  0  0  0  0  0  0  0  0  0  0
   -0.7500   -1.2990    0.0000 C   0  0  0  0  0  0  0  0  0  0  0  0
   -1.5000    0.0000    0.0000 C   0  0  0  0  0  0  0  0  0  0  0  0
   -0.7500    1.2990    0.0000 C   0  0  0  0  0  0  0  0  0  0  0  0
    0.7500    1.2990    0.0000 C   0  0  0  0  0  0  0  0  0  0  0  0
    1.5000    2.5981    0.0000 N   0  0  0  0  0  4  0  0  0  0  0  0
    3.0000    2.5981    0.0000 O   0  0  0  0  0  1  0  0  0  0  0  0
    0.7500    3.8971    0.0000 O   0  0  0  0  0  0  0  0  0  0  0  0
  1  2  1  0
  2  3  2  0
  3  4  1  0
  4  5  2  0
  3  6  1  0
  6  7  2  0
  7  8  1  0
  8  9  2  0
  9 10  1  0
 10 11  1  0
 10 12  2  0
  9  2  1  0
M  CHG  2  10   1  11  -1
M  END
>  <Name>  (14) 
3-Nitrosalicylaldehyde

>  <logK_La_z=3.0_T=25_I=0.1>  (14) 
3.03

$$$$

     RDKit          2D

 14 13  0  0  0  0  0  0  0  0999 V2000
   -2.5981    0.0000    0.0000 N   0  0  0  0  0  0  0  0  0  0  0  0
   -1.2990    0.7500    0.0000 C   0  0  0  0  0  0  0  0  0  0  0  0
   -1.2990    2.2500    0.0000 O   0  0  0  0  0  0  0  0  0  0  0  0
    0.0000    0.0000    0.0000 C   0  0  0  0  0  0  0  0  0  0  0  0
    1.2990    0.7500    0.0000 C   0  0  0  0  0  0  0  0  0  0  0  0
    2.5981   -0.0000    0.0000 C   0  0  0  0  0  0  0  0  0  0  0  0
    3.8971    0.7500    0.0000 C   0  0  0  0  0  0  0  0  0  0  0  0
    5.1962   -0.0000    0.0000 C   0  0  0  0  0  0  0  0  0  0  0  0
    6.4952    0.7500    0.0000 C   0  0  0  0  0  0  0  0  0  0  0  0
    7.7942   -0.0000    0.0000 C   0  0  0  0  0  0  0  0  0  0  0  0
    7.7942   -1.5000    0.0000 O   0  0  0  0  0  0  0  0  0  0  0  0
    9.0933    0.7500    0.0000 N   0  0  0  0  0  0  0  0  0  0  0  0
   10.3923   -0.0000    0.0000 O   0  0  0  0  0  0  0  0  0  0  0  0
    9.0933    2.2500    0.0000 O   0  0  0  0  0  0  0  0  0  0  0  0
  1  2  1  0
  2  3  2  0
  2  4  1  0
  4  5  1  0
  5  6  1  0
  6  7  1  0
  7  8  1  0
  8  9  1  0
  9 10  1  0
 10 11  2  0
 10 12  1  0
 12 13  1  0
 12 14  1  0
M  END
>  <Name>  (15) 
N,N-Dihydroxyoctanediamide

>  <logK_La_z=3.0_T=25_I=0.1>  (15) 
9.59

$$$$

     RDKit          2D

 15 14  0  0  0  0  0  0  0  0999 V2000
   -2.5981    0.0000    0.0000 N   0  0  0  0  0  0  0  0  0  0  0  0
   -1.2990    0.7500    0.0000 C   0  0  0  0  0  0  0  0  0  0  0  0
   -1.2990    2.2500    0.0000 O   0  0  0  0  0  0  0  0  0  0  0  0
    0.0000    0.0000    0.0000 C   0  0  0  0  0  0  0  0  0  0  0  0
    1.2990    0.7500    0.0000 C   0  0  0  0  0  0  0  0  0  0  0  0
    2.5981   -0.0000    0.0000 C   0  0  0  0  0  0  0  0  0  0  0  0
    3.8971    0.7500    0.0000 C   0  0  0  0  0  0  0  0  0  0  0  0
    5.1962   -0.0000    0.0000 C   0  0  0  0  0  0  0  0  0  0  0  0
    6.4952    0.7500    0.0000 C   0  0  0  0  0  0  0  0  0  0  0  0
    7.7942   -0.0000    0.0000 C   0  0  0  0  0  0  0  0  0  0  0  0
    9.0933    0.7500    0.0000 C   0  0  0  0  0  0  0  0  0  0  0  0
    9.0933    2.2500    0.0000 O   0  0  0  0  0  0  0  0  0  0  0  0
   10.3923   -0.0000    0.0000 N   0  0  0  0  0  0  0  0  0  0  0  0
   11.6913    0.7500    0.0000 O   0  0  0  0  0  0  0  0  0  0  0  0
   10.3923   -1.5000    0.0000 O   0  0  0  0  0  0  0  0  0  0  0  0
  1  2  1  0
  2  3  2  0
  2  4  1  0
  4  5  1  0
  5  6  1  0
  6  7  1  0
  7  8  1  0
  8  9  1  0
  9 10  1  0
 10 11  1  0
 11 12  2  0
 11 13  1  0
 13 14  1  0
 13 15  1  0
M  END
>  <Name>  (16) 
N,N-Dihydroxynonanediamide

>  <logK_La_z=3.0_T=25_I=0.1>  (16) 
9.98

$$$$

     RDKit          2D

 10  9  0  0  0  0  0  0  0  0999 V2000
   -0.0817    0.1639    0.0000 C   0  0  0  0  0  0  0  0  0  0  0  0
    1.2990    0.7500    0.0000 C   0  0  0  0  0  0  0  0  0  0  0  0
    2.5981    1.5000    0.0000 C   0  0  0  0  0  0  0  0  0  0  0  0
    0.5490    2.0490    0.0000 O   0  0  0  0  0  0  0  0  0  0  0  0
    2.0490   -0.5490    0.0000 C   0  0  0  0  0  0  0  0  0  0  0  0
    2.7990   -1.8481    0.0000 C   0  0  0  0  0  0  0  0  0  0  0  0
    3.3481    0.2010    0.0000 O   0  0  0  0  0  0  0  0  0  0  0  0
    0.7500   -1.2990    0.0000 C   0  0  0  0  0  0  0  0  0  0  0  0
    0.7500   -2.7990    0.0000 O   0  0  0  0  0  0  0  0  0  0  0  0
   -0.6308   -0.7130    0.0000 O   0  0  0  0  0  0  0  0  0  0  0  0
  1  2  1  0
  2  3  1  0
  2  4  1  0
  2  5  1  0
  5  6  1  0
  5  7  1  0
  5  8  1  0
  8  9  1  0
  8 10  2  0
M  END
>  <Name>  (17) 
2,3-Dihydroxy-2,3-dimethylbutanoic acid

>  <logK_La_z=3.0_T=25_I=0.1>  (17) 
2.81

$$$$

     RDKit          2D

  9  9  0  0  0  0  0  0  0  0999 V2000
    3.0000    0.0000    0.0000 O   0  0  0  0  0  0  0  0  0  0  0  0
    1.5000    0.0000    0.0000 C   0  0  0  0  0  0  0  0  0  0  0  0
    0.7500   -1.2990    0.0000 C   0  0  0  0  0  0  0  0  0  0  0  0
   -0.7500   -1.2990    0.0000 C   0  0  0  0  0  0  0  0  0  0  0  0
   -1.5000    0.0000    0.0000 C   0  0  0  0  0  0  0  0  0  0  0  0
   -0.7500    1.2990    0.0000 C   0  0  0  0  0  0  0  0  0  0  0  0
    0.7500    1.2990    0.0000 C   0  0  0  0  0  0  0  0  0  0  0  0
    1.5000    2.5981    0.0000 C   0  0  0  0  0  0  0  0  0  0  0  0
    3.0000    2.5981    0.0000 O   0  0  0  0  0  0  0  0  0  0  0  0
  1  2  1  0
  2  3  2  0
  3  4  1  0
  4  5  2  0
  5  6  1  0
  6  7  2  0
  7  8  1  0
  8  9  2  0
  7  2  1  0
M  END
>  <Name>  (18) 
2-Hydroxybenzaldehyde

>  <logK_La_z=3.0_T=25_I=0.1>  (18) 
3.4

$$$$

     RDKit          2D

 17 17  0  0  0  0  0  0  0  0999 V2000
   12.0000    5.1962    0.0000 C   0  0  0  0  0  0  0  0  0  0  0  0
   11.2500    3.8971    0.0000 C   0  0  0  0  0  0  0  0  0  0  0  0
    9.7500    3.8971    0.0000 C   0  0  0  0  0  0  0  0  0  0  0  0
    9.0000    2.5981    0.0000 C   0  0  0  0  0  0  0  0  0  0  0  0
    7.5000    2.5981    0.0000 C   0  0  0  0  0  0  0  0  0  0  0  0
    6.7500    1.2990    0.0000 C   0  0  0  0  0  0  0  0  0  0  0  0
    5.2500    1.2990    0.0000 C   0  0  0  0  0  0  0  0  0  0  0  0
    4.5000    0.0000    0.0000 C   0  0  0  0  0  0  0  0  0  0  0  0
    3.0000    0.0000    0.0000 P   0  0  0  0  0  5  0  0  0  0  0  0
    3.0000   -1.5000    0.0000 O   0  0  0  0  0  0  0  0  0  0  0  0
    3.0000    1.5000    0.0000 O   0  0  0  0  0  0  0  0  0  0  0  0
    1.5000    0.0000    0.0000 C   0  0  0  0  0  0  0  0  0  0  0  0
    0.7500   -1.2990    0.0000 C   0  0  0  0  0  0  0  0  0  0  0  0
   -0.7500   -1.2990    0.0000 C   0  0  0  0  0  0  0  0  0  0  0  0
   -1.5000    0.0000    0.0000 C   0  0  0  0  0  0  0  0  0  0  0  0
   -0.7500    1.2990    0.0000 C   0  0  0  0  0  0  0  0  0  0  0  0
    0.7500    1.2990    0.0000 C   0  0  0  0  0  0  0  0  0  0  0  0
  1  2  1  0
  2  3  1  0
  3  4  1  0
  4  5  1  0
  5  6  1  0
  6  7  1  0
  7  8  1  0
  8  9  1  0
  9 10  1  0
  9 11  2  0
  9 12  1  0
 12 13  2  0
 13 14  1  0
 14 15  2  0
 15 16  1  0
 16 17  2  0
 17 12  1  0
M  END
>  <Name>  (19) 
Phenyl(n-octyl)phosphinic acid

>  <logK_La_z=3.0_T=25_I=0.1>  (19) 
3.21

$$$$

     RDKit          2D

  9  8  0  0  0  0  0  0  0  0999 V2000
   -1.2990    0.7500    0.0000 O   0  0  0  0  0  0  0  0  0  0  0  0
    0.0000    0.0000    0.0000 C   0  0  0  0  0  0  0  0  0  0  0  0
   -0.0000   -1.5000    0.0000 O   0  0  0  0  0  0  0  0  0  0  0  0
    1.2990    0.7500    0.0000 C   0  0  0  0  0  0  0  0  0  0  0  0
    2.0490   -0.5490    0.0000 O   0  0  0  0  0  0  0  0  0  0  0  0
    0.5490    2.0490    0.0000 O   0  0  0  0  0  0  0  0  0  0  0  0
    2.5981    1.5000    0.0000 C   0  0  0  0  0  0  0  0  0  0  0  0
    2.5981    3.0000    0.0000 O   0  0  0  0  0  0  0  0  0  0  0  0
    3.8971    0.7500    0.0000 O   0  0  0  0  0  0  0  0  0  0  0  0
  1  2  1  0
  2  3  2  0
  2  4  1  0
  4  5  1  0
  4  6  1  0
  4  7  1  0
  7  8  1  0
  7  9  2  0
M  END
>  <Name>  (20) 
Dihydroxypropanedioic acid

>  <logK_La_z=3.0_T=25_I=0.1>  (20) 
3.49

$$$$

     RDKit          2D

 19 18  0  0  0  0  0  0  0  0999 V2000
    0.0000    0.0000    0.0000 C   0  0  0  0  0  0  0  0  0  0  0  0
    1.2990    0.7500    0.0000 C   0  0  0  0  0  0  0  0  0  0  0  0
    2.5981   -0.0000    0.0000 C   0  0  0  0  0  0  0  0  0  0  0  0
    3.8971    0.7500    0.0000 C   0  0  0  0  0  0  0  0  0  0  0  0
    5.1962   -0.0000    0.0000 C   0  0  0  0  0  0  0  0  0  0  0  0
    6.4952    0.7500    0.0000 C   0  0  0  0  0  0  0  0  0  0  0  0
    7.7942   -0.0000    0.0000 C   0  0  0  0  0  0  0  0  0  0  0  0
    5.1962   -1.5000    0.0000 C   0  0  0  0  0  0  0  0  0  0  0  0
    6.4952   -2.2500    0.0000 P   0  0  0  0  0  5  0  0  0  0  0  0
    7.2452   -0.9510    0.0000 O   0  0  0  0  0  0  0  0  0  0  0  0
    5.7452   -3.5490    0.0000 O   0  0  0  0  0  0  0  0  0  0  0  0
    7.7942   -3.0000    0.0000 C   0  0  0  0  0  0  0  0  0  0  0  0
    7.7942   -4.5000    0.0000 C   0  0  0  0  0  0  0  0  0  0  0  0
    9.0933   -5.2500    0.0000 C   0  0  0  0  0  0  0  0  0  0  0  0
    9.0933   -6.7500    0.0000 C   0  0  0  0  0  0  0  0  0  0  0  0
    6.4952   -5.2500    0.0000 C   0  0  0  0  0  0  0  0  0  0  0  0
    6.4952   -6.7500    0.0000 C   0  0  0  0  0  0  0  0  0  0  0  0
    5.1962   -7.5000    0.0000 C   0  0  0  0  0  0  0  0  0  0  0  0
    5.1962   -9.0000    0.0000 C   0  0  0  0  0  0  0  0  0  0  0  0
  1  2  1  0
  2  3  1  0
  3  4  1  0
  4  5  1  0
  5  6  1  0
  6  7  1  0
  5  8  1  0
  8  9  1  0
  9 10  1  0
  9 11  2  0
  9 12  1  0
 12 13  1  0
 13 14  1  0
 14 15  1  0
 13 16  1  0
 16 17  1  0
 17 18  1  0
 18 19  1  0
M  END
>  <Name>  (21) 
Di(2-ethylhexyl)phosphinic acid

>  <logK_La_z=3.0_T=25_I=0.1>  (21) 
3.65

$$$$

     RDKit          2D

 26 24  0  0  0  0  0  0  0  0999 V2000
    0.0000    0.0000    0.0000 C   0  0  0  0  0  0  0  0  0  0  0  0
    1.2990    0.7500    0.0000 C   0  0  0  0  0  0  0  0  0  0  0  0
    2.5981   -0.0000    0.0000 C   0  0  0  0  0  0  0  0  0  0  0  0
    3.8971    0.7500    0.0000 C   0  0  0  0  0  0  0  0  0  0  0  0
    5.1962    1.5000    0.0000 C   0  0  0  0  0  0  0  0  0  0  0  0
    5.1962    3.0000    0.0000 C   0  0  0  0  0  0  0  0  0  0  0  0
    6.4952    3.7500    0.0000 C   0  0  0  0  0  0  0  0  0  0  0  0
    4.6471   -0.5490    0.0000 C   0  0  0  0  0  0  0  0  0  0  0  0
    6.1471   -0.5490    0.0000 O   0  0  0  0  0  0  0  0  0  0  0  0
    3.8971   -1.8481    0.0000 O   0  0  0  0  0  0  0  0  0  0  0  0
    3.1471    2.0490    0.0000 C   0  0  0  0  0  0  0  0  0  0  0  0
    3.8971    3.3481    0.0000 O   0  0  0  0  0  0  0  0  0  0  0  0
    1.6471    2.0490    0.0000 O   0  0  0  0  0  0  0  0  0  0  0  0
    0.0000    6.5981    0.0000 C   0  0  0  0  0  0  0  0  0  0  0  0
    1.2990    7.3481    0.0000 C   0  0  0  0  0  0  0  0  0  0  0  0
    2.5981    6.5981    0.0000 C   0  0  0  0  0  0  0  0  0  0  0  0
    3.8971    7.3481    0.0000 C   0  0  0  0  0  0  0  0  0  0  0  0
    5.1962    8.0981    0.0000 C   0  0  0  0  0  0  0  0  0  0  0  0
    5.1962    9.5981    0.0000 C   0  0  0  0  0  0  0  0  0  0  0  0
    6.4952   10.3481    0.0000 C   0  0  0  0  0  0  0  0  0  0  0  0
    4.6471    6.0490    0.0000 C   0  0  0  0  0  0  0  0  0  0  0  0
    6.1471    6.0490    0.0000 O   0  0  0  0  0  0  0  0  0  0  0  0
    3.8971    4.7500    0.0000 O   0  0  0  0  0  0  0  0  0  0  0  0
    3.1471    8.6471    0.0000 C   0  0  0  0  0  0  0  0  0  0  0  0
    3.8971    9.9462    0.0000 O   0  0  0  0  0  0  0  0  0  0  0  0
    1.6471    8.6471    0.0000 O   0  0  0  0  0  0  0  0  0  0  0  0
  1  2  1  0
  2  3  1  0
  3  4  1  0
  4  5  1  0
  5  6  1  0
  6  7  1  0
  4  8  1  0
  8  9  1  0
  8 10  2  0
  4 11  1  0
 11 12  1  0
 11 13  2  0
 14 15  1  0
 15 16  1  0
 16 17  1  0
 17 18  1  0
 18 19  1  0
 19 20  1  0
 17 21  1  0
 21 22  1  0
 21 23  2  0
 17 24  1  0
 24 25  1  0
 24 26  2  0
M  END
>  <Name>  (22) 
Dipropylpropanedioic acid (Di-n-propylmalonic acid)

>  <logK_La_z=3.0_T=25_I=0.1>  (22) 
3.66

$$$$

     RDKit          2D

 22 23  0  0  0  0  0  0  0  0999 V2000
    3.3203    3.2922    0.0000 O   0  0  0  0  0  0  0  0  0  0  0  0
    2.4138    2.6807    0.0000 C   0  0  0  0  0  0  0  0  0  0  0  0
    3.2954    1.4672    0.0000 C   0  0  0  0  0  0  0  0  0  0  0  0
    3.6073    0.0000    0.0000 C   0  0  0  0  0  0  0  0  0  0  0  0
    3.2954   -1.4672    0.0000 O   0  0  0  0  0  0  0  0  0  0  0  0
    2.4138   -2.6807    0.0000 C   0  0  0  0  0  0  0  0  0  0  0  0
    1.1147   -3.4307    0.0000 C   0  0  0  0  0  0  0  0  0  0  0  0
   -0.3771   -3.5875    0.0000 O   0  0  0  0  0  0  0  0  0  0  0  0
   -1.8037   -3.1240    0.0000 C   0  0  0  0  0  0  0  0  0  0  0  0
   -2.9184   -2.1203    0.0000 C   0  0  0  0  0  0  0  0  0  0  0  0
   -3.5285   -0.7500    0.0000 O   0  0  0  0  0  0  0  0  0  0  0  0
   -3.5285    0.7500    0.0000 C   0  0  0  0  0  0  0  0  0  0  0  0
   -2.9184    2.1203    0.0000 C   0  0  0  0  0  0  0  0  0  0  0  0
   -1.8037    3.1240    0.0000 O   0  0  0  0  0  0  0  0  0  0  0  0
   -0.3771    3.5875    0.0000 C   0  0  0  0  0  0  0  0  0  0  0  0
    1.1147    3.4307    0.0000 C   0  0  0  0  0  0  0  0  0  0  0  0
    2.3684    4.3204    0.0000 C   0  0  0  0  0  0  0  0  0  0  0  0
    3.8356    4.0085    0.0000 C   0  0  0  0  0  0  0  0  0  0  0  0
    4.2991    2.5819    0.0000 C   0  0  0  0  0  0  0  0  0  0  0  0
    4.8393    5.1232    0.0000 N   0  0  0  0  0  4  0  0  0  0  0  0
    6.3065    4.8114    0.0000 O   0  0  0  0  0  1  0  0  0  0  0  0
    4.3758    6.5498    0.0000 O   0  0  0  0  0  0  0  0  0  0  0  0
  1  2  1  0
  2  3  2  0
  3  4  1  0
  4  5  1  0
  5  6  1  0
  6  7  1  0
  7  8  1  0
  8  9  1  0
  9 10  1  0
 10 11  1  0
 11 12  1  0
 12 13  1  0
 13 14  1  0
 14 15  1  0
 15 16  1  0
 16 17  2  0
 17 18  1  0
 18 19  2  0
 18 20  1  0
 20 21  1  0
 20 22  2  0
 16  2  1  0
 19  3  1  0
M  CHG  2  20   1  21  -1
M  END
>  <Name>  (23) 
16-Nitro-3,6,9,12-tetraoxabicyclo[12.3.1]octadeca-1(18),14,16-trien-18-ol

>  <logK_La_z=3.0_T=25_I=0.1>  (23) 
2.7

$$$$

     RDKit          2D

 10  9  0  0  0  0  0  0  0  0999 V2000
    6.4952    0.7500    0.0000 O   0  0  0  0  0  0  0  0  0  0  0  0
    5.1962   -0.0000    0.0000 C   0  0  0  0  0  0  0  0  0  0  0  0
    5.1962   -1.5000    0.0000 O   0  0  0  0  0  0  0  0  0  0  0  0
    3.8971    0.7500    0.0000 C   0  0  0  0  0  0  0  0  0  0  0  0
    2.5981   -0.0000    0.0000 C   0  0  0  0  0  0  0  0  0  0  0  0
    1.2990    0.7500    0.0000 C   0  0  0  0  0  0  0  0  0  0  0  0
    0.0000    0.0000    0.0000 C   0  0  0  0  0  0  0  0  0  0  0  0
    3.8971    2.2500    0.0000 C   0  0  0  0  0  0  0  0  0  0  0  0
    5.1962    3.0000    0.0000 O   0  0  0  0  0  0  0  0  0  0  0  0
    2.5981    3.0000    0.0000 O   0  0  0  0  0  0  0  0  0  0  0  0
  1  2  1  0
  2  3  2  0
  2  4  1  0
  4  5  1  0
  5  6  1  0
  6  7  2  0
  4  8  1  0
  8  9  1  0
  8 10  2  0
M  END
>  <Name>  (24) 
2-Allylpropanedioic acid

>  <logK_La_z=3.0_T=25_I=0.1>  (24) 
3.44

$$$$

     RDKit          2D

 12 12  0  0  0  0  0  0  0  0999 V2000
    3.7500   -1.2990    0.0000 O   0  0  0  0  0  0  0  0  0  0  0  0
    3.0000    0.0000    0.0000 C   0  0  0  0  0  0  0  0  0  0  0  0
    3.7500    1.2990    0.0000 O   0  0  0  0  0  0  0  0  0  0  0  0
    1.5000    0.0000    0.0000 C   0  0  0  0  0  0  0  0  0  0  0  0
    0.7500   -1.2990    0.0000 C   0  0  0  0  0  0  0  0  0  0  0  0
   -0.7500   -1.2990    0.0000 C   0  0  0  0  0  0  0  0  0  0  0  0
   -1.5000    0.0000    0.0000 C   0  0  0  0  0  0  0  0  0  0  0  0
   -0.7500    1.2990    0.0000 C   0  0  0  0  0  0  0  0  0  0  0  0
    0.7500    1.2990    0.0000 C   0  0  0  0  0  0  0  0  0  0  0  0
   -3.0000    0.0000    0.0000 N   0  0  0  0  0  4  0  0  0  0  0  0
   -3.7500    1.2990    0.0000 O   0  0  0  0  0  1  0  0  0  0  0  0
   -3.7500   -1.2990    0.0000 O   0  0  0  0  0  0  0  0  0  0  0  0
  1  2  1  0
  2  3  2  0
  2  4  1  0
  4  5  2  0
  5  6  1  0
  6  7  2  0
  7  8  1  0
  8  9  2  0
  7 10  1  0
 10 11  1  0
 10 12  2  0
  9  4  1  0
M  CHG  2  10   1  11  -1
M  END
>  <Name>  (25) 
4-Nitrobenzoic acid

>  <logK_La_z=3.0_T=25_I=0.1>  (25) 
1.59

$$$$

     RDKit          2D

 10 10  0  0  0  0  0  0  0  0999 V2000
    3.7500   -1.2990    0.0000 O   0  0  0  0  0  0  0  0  0  0  0  0
    3.0000    0.0000    0.0000 C   0  0  0  0  0  0  0  0  0  0  0  0
    3.7500    1.2990    0.0000 O   0  0  0  0  0  0  0  0  0  0  0  0
    1.5000    0.0000    0.0000 C   0  0  0  0  0  0  0  0  0  0  0  0
    0.7500   -1.2990    0.0000 C   0  0  0  0  0  0  0  0  0  0  0  0
   -0.7500   -1.2990    0.0000 C   0  0  0  0  0  0  0  0  0  0  0  0
   -1.5000    0.0000    0.0000 C   0  0  0  0  0  0  0  0  0  0  0  0
   -3.0000    0.0000    0.0000 F   0  0  0  0  0  0  0  0  0  0  0  0
   -0.7500    1.2990    0.0000 C   0  0  0  0  0  0  0  0  0  0  0  0
    0.7500    1.2990    0.0000 C   0  0  0  0  0  0  0  0  0  0  0  0
  1  2  1  0
  2  3  2  0
  2  4  1  0
  4  5  2  0
  5  6  1  0
  6  7  2  0
  7  8  1  0
  7  9  1  0
  9 10  2  0
 10  4  1  0
M  END
>  <Name>  (26) 
4-Fluorobenzoic acid

>  <logK_La_z=3.0_T=25_I=0.1>  (26) 
1.88

$$$$

     RDKit          2D

  8  8  0  0  0  0  0  0  0  0999 V2000
    2.5607    0.0000    0.0000 O   0  0  0  0  0  0  0  0  0  0  0  0
    1.0607    0.0000    0.0000 C   0  0  0  0  0  0  0  0  0  0  0  0
   -0.0000   -1.0607    0.0000 C   0  0  0  0  0  0  0  0  0  0  0  0
   -0.0000   -2.5607    0.0000 O   0  0  0  0  0  0  0  0  0  0  0  0
   -1.0607    0.0000    0.0000 C   0  0  0  0  0  0  0  0  0  0  0  0
   -2.5607    0.0000    0.0000 O   0  0  0  0  0  0  0  0  0  0  0  0
    0.0000    1.0607    0.0000 C   0  0  0  0  0  0  0  0  0  0  0  0
    0.0000    2.5607    0.0000 O   0  0  0  0  0  0  0  0  0  0  0  0
  1  2  1  0
  2  3  2  0
  3  4  1  0
  3  5  1  0
  5  6  2  0
  5  7  1  0
  7  8  2  0
  7  2  1  0
M  END
>  <Name>  (27) 
3,4-Dihydroxy-3-cyclobutene-1,2-dione

>  <logK_La_z=3.0_T=25_I=0.1>  (27) 
2.703333333333333

$$$$

     RDKit          2D

  9  8  0  0  0  0  0  0  0  0999 V2000
   -1.2990    0.7500    0.0000 O   0  0  0  0  0  0  0  0  0  0  0  0
    0.0000    0.0000    0.0000 C   0  0  0  0  0  0  0  0  0  0  0  0
    1.2990    0.7500    0.0000 C   0  0  0  0  0  0  0  0  0  0  0  0
    0.5490    2.0490    0.0000 O   0  0  0  0  0  0  0  0  0  0  0  0
    2.5981    1.5000    0.0000 C   0  0  0  0  0  0  0  0  0  0  0  0
    2.5981    3.0000    0.0000 O   0  0  0  0  0  0  0  0  0  0  0  0
    2.0490   -0.5490    0.0000 C   0  0  0  0  0  0  0  0  0  0  0  0
    3.5490   -0.5490    0.0000 O   0  0  0  0  0  0  0  0  0  0  0  0
    1.2990   -1.8481    0.0000 O   0  0  0  0  0  0  0  0  0  0  0  0
  1  2  1  0
  2  3  1  0
  3  4  1  0
  3  5  1  0
  5  6  1  0
  3  7  1  0
  7  8  1  0
  7  9  2  0
M  END
>  <Name>  (28) 
2,3-Dihydroxy-2-hydroxymethylpropanoic acid

>  <logK_La_z=3.0_T=25_I=0.1>  (28) 
2.69

>  <logK_La_z=3.0_T=25_I=0.5>  (28) 
2.4

$$$$

     RDKit          2D

 10 10  0  0  0  0  0  0  0  0999 V2000
    5.2500   -1.2990    0.0000 O   0  0  0  0  0  0  0  0  0  0  0  0
    3.7500   -1.2990    0.0000 C   0  0  0  0  0  0  0  0  0  0  0  0
    3.0000   -2.5981    0.0000 O   0  0  0  0  0  0  0  0  0  0  0  0
    3.0000    0.0000    0.0000 C   0  0  0  0  0  0  0  0  0  0  0  0
    1.5000    0.0000    0.0000 C   0  0  0  0  0  0  0  0  0  0  0  0
    0.7500   -1.2990    0.0000 C   0  0  0  0  0  0  0  0  0  0  0  0
   -0.7500   -1.2990    0.0000 C   0  0  0  0  0  0  0  0  0  0  0  0
   -1.5000    0.0000    0.0000 C   0  0  0  0  0  0  0  0  0  0  0  0
   -0.7500    1.2990    0.0000 C   0  0  0  0  0  0  0  0  0  0  0  0
    0.7500    1.2990    0.0000 C   0  0  0  0  0  0  0  0  0  0  0  0
  1  2  1  0
  2  3  2  0
  2  4  1  0
  4  5  1  0
  5  6  2  0
  6  7  1  0
  7  8  2  0
  8  9  1  0
  9 10  2  0
 10  5  1  0
M  END
>  <Name>  (29) 
Phenylethanoic acid

>  <logK_La_z=3.0_T=25_I=0.1>  (29) 
1.74

$$$$

     RDKit          2D

 10 10  0  0  0  0  0  0  0  0999 V2000
    3.0000    0.0000    0.0000 O   0  0  0  0  0  0  0  0  0  0  0  0
    1.5000    0.0000    0.0000 C   0  0  0  0  0  0  0  0  0  0  0  0
    0.7500   -1.2990    0.0000 C   0  0  0  0  0  0  0  0  0  0  0  0
   -0.7500   -1.2990    0.0000 C   0  0  0  0  0  0  0  0  0  0  0  0
   -1.5000    0.0000    0.0000 C   0  0  0  0  0  0  0  0  0  0  0  0
   -3.0000    0.0000    0.0000 Cl  0  0  0  0  0  0  0  0  0  0  0  0
   -0.7500    1.2990    0.0000 C   0  0  0  0  0  0  0  0  0  0  0  0
    0.7500    1.2990    0.0000 C   0  0  0  0  0  0  0  0  0  0  0  0
    1.5000    2.5981    0.0000 C   0  0  0  0  0  0  0  0  0  0  0  0
    3.0000    2.5981    0.0000 O   0  0  0  0  0  0  0  0  0  0  0  0
  1  2  1  0
  2  3  2  0
  3  4  1  0
  4  5  2  0
  5  6  1  0
  5  7  1  0
  7  8  2  0
  8  9  1  0
  9 10  2  0
  8  2  1  0
M  END
>  <Name>  (30) 
5-Chlorosalicylaldehyde

>  <logK_La_z=3.0_T=25_I=0.1>  (30) 
3.2000000000000006

$$$$

     RDKit          2D

 15 16  0  0  0  0  0  0  0  0999 V2000
   -1.8373   -5.6601    0.0000 N   0  0  0  0  0  0  0  0  0  0  0  0
   -2.9520   -4.6564    0.0000 C   0  0  0  0  0  0  0  0  0  0  0  0
   -2.6401   -3.1891    0.0000 C   0  0  0  0  0  0  0  0  0  0  0  0
   -1.2135   -2.7256    0.0000 C   0  0  0  0  0  0  0  0  0  0  0  0
   -0.0000   -3.6073    0.0000 C   0  0  0  0  0  0  0  0  0  0  0  0
    1.2135   -2.7256    0.0000 N   0  0  0  0  0  0  0  0  0  0  0  0
    0.7500   -1.2990    0.0000 C   0  0  0  0  0  0  0  0  0  0  0  0
    1.5000    0.0000    0.0000 C   0  0  0  0  0  0  0  0  0  0  0  0
    0.7500    1.2990    0.0000 C   0  0  0  0  0  0  0  0  0  0  0  0
   -0.7500    1.2990    0.0000 C   0  0  0  0  0  0  0  0  0  0  0  0
   -1.5000    0.0000    0.0000 C   0  0  0  0  0  0  0  0  0  0  0  0
   -0.7500   -1.2990    0.0000 C   0  0  0  0  0  0  0  0  0  0  0  0
   -4.3786   -5.1199    0.0000 C   0  0  0  0  0  0  0  0  0  0  0  0
   -4.6904   -6.5871    0.0000 O   0  0  0  0  0  0  0  0  0  0  0  0
   -5.4933   -4.1162    0.0000 O   0  0  0  0  0  0  0  0  0  0  0  0
  1  2  1  0
  2  3  1  0
  3  4  1  0
  4  5  2  0
  5  6  1  0
  6  7  1  0
  7  8  2  0
  8  9  1  0
  9 10  2  0
 10 11  1  0
 11 12  2  0
  2 13  1  0
 13 14  1  0
 13 15  2  0
 12  4  1  0
 12  7  1  0
M  END
>  <Name>  (31) 
2-Amino-3-(3-indolyl)propanoic acid

>  <logK_La_z=3.0_T=25_I=0.1>  (31) 
4.45

$$$$

     RDKit          2D

 10 10  0  0  0  0  0  0  0  0999 V2000
    3.7500   -1.2990    0.0000 O   0  0  0  0  0  0  0  0  0  0  0  0
    3.0000    0.0000    0.0000 C   0  0  0  0  0  0  0  0  0  0  0  0
    3.7500    1.2990    0.0000 O   0  0  0  0  0  0  0  0  0  0  0  0
    1.5000    0.0000    0.0000 C   0  0  0  0  0  0  0  0  0  0  0  0
    0.7500   -1.2990    0.0000 C   0  0  0  0  0  0  0  0  0  0  0  0
   -0.7500   -1.2990    0.0000 C   0  0  0  0  0  0  0  0  0  0  0  0
   -1.5000    0.0000    0.0000 C   0  0  0  0  0  0  0  0  0  0  0  0
   -0.7500    1.2990    0.0000 C   0  0  0  0  0  0  0  0  0  0  0  0
   -1.5000    2.5981    0.0000 F   0  0  0  0  0  0  0  0  0  0  0  0
    0.7500    1.2990    0.0000 C   0  0  0  0  0  0  0  0  0  0  0  0
  1  2  1  0
  2  3  2  0
  2  4  1  0
  4  5  2  0
  5  6  1  0
  6  7  2  0
  7  8  1  0
  8  9  1  0
  8 10  2  0
 10  4  1  0
M  END
>  <Name>  (32) 
3-Fluorobenzoic acid

>  <logK_La_z=3.0_T=25_I=0.1>  (32) 
1.6499999999999997

$$$$

     RDKit          2D

  8  7  0  0  0  0  0  0  0  0999 V2000
    0.0000    0.0000    0.0000 C   0  0  0  0  0  0  0  0  0  0  0  0
    1.2990    0.7500    0.0000 C   0  0  0  0  0  0  0  0  0  0  0  0
    2.5981   -0.0000    0.0000 C   0  0  0  0  0  0  0  0  0  0  0  0
    3.8971   -0.7500    0.0000 C   0  0  0  0  0  0  0  0  0  0  0  0
    3.3481    1.2990    0.0000 O   0  0  0  0  0  0  0  0  0  0  0  0
    1.8481   -1.2990    0.0000 C   0  0  0  0  0  0  0  0  0  0  0  0
    2.5981   -2.5981    0.0000 O   0  0  0  0  0  0  0  0  0  0  0  0
    0.3481   -1.2990    0.0000 O   0  0  0  0  0  0  0  0  0  0  0  0
  1  2  1  0
  2  3  1  0
  3  4  1  0
  3  5  1  0
  3  6  1  0
  6  7  1  0
  6  8  2  0
M  END
>  <Name>  (33) 
2-Hydroxy-2-methylbutanoic acid

>  <logK_La_z=3.0_T=25_I=0.1>  (33) 
2.35

$$$$

     RDKit          2D

  8  7  0  0  0  0  0  0  0  0999 V2000
    0.0000    0.0000    0.0000 C   0  0  0  0  0  0  0  0  0  0  0  0
    1.2990    0.7500    0.0000 C   0  0  0  0  0  0  0  0  0  0  0  0
    0.5490    2.0490    0.0000 O   0  0  0  0  0  0  0  0  0  0  0  0
    2.5981    1.5000    0.0000 C   0  0  0  0  0  0  0  0  0  0  0  0
    2.5981    3.0000    0.0000 O   0  0  0  0  0  0  0  0  0  0  0  0
    2.0490   -0.5490    0.0000 C   0  0  0  0  0  0  0  0  0  0  0  0
    3.5490   -0.5490    0.0000 O   0  0  0  0  0  0  0  0  0  0  0  0
    1.2990   -1.8481    0.0000 O   0  0  0  0  0  0  0  0  0  0  0  0
  1  2  1  0
  2  3  1  0
  2  4  1  0
  4  5  1  0
  2  6  1  0
  6  7  1  0
  6  8  2  0
M  END
>  <Name>  (34) 
2,3-Dihydroxy-2-methylpropanoic acid

>  <logK_La_z=3.0_T=25_I=0.1>  (34) 
2.65

$$$$

     RDKit          2D

  9  8  0  0  0  0  0  0  0  0999 V2000
    1.2990    2.2500    0.0000 O   0  0  0  0  0  0  0  0  0  0  0  0
    1.2990    0.7500    0.0000 C   0  0  0  0  0  0  0  0  0  0  0  0
    0.0000    0.0000    0.0000 C   0  0  0  0  0  0  0  0  0  0  0  0
   -1.2990    0.7500    0.0000 C   0  0  0  0  0  0  0  0  0  0  0  0
   -2.5981    0.0000    0.0000 O   0  0  0  0  0  0  0  0  0  0  0  0
   -1.2990    2.2500    0.0000 O   0  0  0  0  0  0  0  0  0  0  0  0
    2.5981   -0.0000    0.0000 C   0  0  0  0  0  0  0  0  0  0  0  0
    3.8971    0.7500    0.0000 O   0  0  0  0  0  0  0  0  0  0  0  0
    2.5981   -1.5000    0.0000 O   0  0  0  0  0  0  0  0  0  0  0  0
  1  2  1  0
  2  3  1  0
  3  4  1  0
  4  5  1  0
  4  6  2  0
  2  7  1  0
  7  8  1  0
  7  9  2  0
M  END
>  <Name>  (35) 
2-Hydroxybutane-1,4-dioic acid

>  <logK_La_z=3.0_T=25_I=0.1>  (35) 
4.37

$$$$

     RDKit          2D

 22 22  0  0  0  0  0  0  0  0999 V2000
    8.0691   -1.2990    0.0000 O   0  0  0  0  0  0  0  0  0  0  0  0
    6.5691   -1.2990    0.0000 C   0  0  0  0  0  0  0  0  0  0  0  0
    5.8191   -2.5981    0.0000 O   0  0  0  0  0  0  0  0  0  0  0  0
    5.8191    0.0000    0.0000 C   0  0  0  0  0  0  0  0  0  0  0  0
    4.3191    0.0000    0.0000 N   0  0  0  0  0  0  0  0  0  0  0  0
    4.0586   -1.4772    0.0000 C   0  0  0  0  0  0  0  0  0  0  0  0
    3.3086   -2.7762    0.0000 C   0  0  0  0  0  0  0  0  0  0  0  0
    2.1595   -3.7404    0.0000 O   0  0  0  0  0  0  0  0  0  0  0  0
    0.7500   -4.2535    0.0000 C   0  0  0  0  0  0  0  0  0  0  0  0
   -0.7500   -4.2535    0.0000 C   0  0  0  0  0  0  0  0  0  0  0  0
   -2.1595   -3.7404    0.0000 O   0  0  0  0  0  0  0  0  0  0  0  0
   -3.3086   -2.7762    0.0000 C   0  0  0  0  0  0  0  0  0  0  0  0
   -4.0586   -1.4772    0.0000 C   0  0  0  0  0  0  0  0  0  0  0  0
   -4.3191    0.0000    0.0000 N   0  0  0  0  0  0  0  0  0  0  0  0
   -4.0586    1.4772    0.0000 C   0  0  0  0  0  0  0  0  0  0  0  0
   -3.3086    2.7762    0.0000 C   0  0  0  0  0  0  0  0  0  0  0  0
   -2.1595    3.7404    0.0000 O   0  0  0  0  0  0  0  0  0  0  0  0
   -0.7500    4.2535    0.0000 C   0  0  0  0  0  0  0  0  0  0  0  0
    0.7500    4.2535    0.0000 C   0  0  0  0  0  0  0  0  0  0  0  0
    2.1595    3.7404    0.0000 O   0  0  0  0  0  0  0  0  0  0  0  0
    3.3086    2.7762    0.0000 C   0  0  0  0  0  0  0  0  0  0  0  0
    4.0586    1.4772    0.0000 C   0  0  0  0  0  0  0  0  0  0  0  0
  1  2  1  0
  2  3  2  0
  2  4  1  0
  4  5  1  0
  5  6  1  0
  6  7  1  0
  7  8  1  0
  8  9  1  0
  9 10  1  0
 10 11  1  0
 11 12  1  0
 12 13  1  0
 13 14  1  0
 14 15  1  0
 15 16  1  0
 16 17  1  0
 17 18  1  0
 18 19  1  0
 19 20  1  0
 20 21  1  0
 21 22  1  0
 22  5  1  0
M  END
>  <Name>  (36) 
1,4,10,13-Tetraoxa-7,16-diazacyclooctadecane-7-ethanoic acid

>  <logK_La_z=3.0_T=25_I=0.1>  (36) 
6.62

$$$$

     RDKit          2D

 12 12  0  0  0  0  0  0  0  0999 V2000
    5.2500   -1.2990    0.0000 O   0  0  0  0  0  0  0  0  0  0  0  0
    3.7500   -1.2990    0.0000 C   0  0  0  0  0  0  0  0  0  0  0  0
    3.0000    0.0000    0.0000 C   0  0  0  0  0  0  0  0  0  0  0  0
    3.7500    1.2990    0.0000 C   0  0  0  0  0  0  0  0  0  0  0  0
    5.2500    1.2990    0.0000 O   0  0  0  0  0  0  0  0  0  0  0  0
    3.0000    2.5981    0.0000 O   0  0  0  0  0  0  0  0  0  0  0  0
    1.5000    0.0000    0.0000 C   0  0  0  0  0  0  0  0  0  0  0  0
    0.7500   -1.2990    0.0000 C   0  0  0  0  0  0  0  0  0  0  0  0
   -0.7500   -1.2990    0.0000 C   0  0  0  0  0  0  0  0  0  0  0  0
   -1.5000    0.0000    0.0000 C   0  0  0  0  0  0  0  0  0  0  0  0
   -0.7500    1.2990    0.0000 C   0  0  0  0  0  0  0  0  0  0  0  0
    0.7500    1.2990    0.0000 C   0  0  0  0  0  0  0  0  0  0  0  0
  1  2  1  0
  2  3  1  0
  3  4  1  0
  4  5  1  0
  4  6  2  0
  3  7  1  0
  7  8  2  0
  8  9  1  0
  9 10  2  0
 10 11  1  0
 11 12  2  0
 12  7  1  0
M  END
>  <Name>  (37) 
2-Phenyl-3-hydroxypropanoic acid

>  <logK_La_z=3.0_T=25_I=0.1>  (37) 
2.02

$$$$

     RDKit          2D

 12 12  0  0  0  0  0  0  0  0999 V2000
    3.0000    0.0000    0.0000 O   0  0  0  0  0  0  0  0  0  0  0  0
    1.5000    0.0000    0.0000 C   0  0  0  0  0  0  0  0  0  0  0  0
    0.7500   -1.2990    0.0000 C   0  0  0  0  0  0  0  0  0  0  0  0
   -0.7500   -1.2990    0.0000 C   0  0  0  0  0  0  0  0  0  0  0  0
   -1.5000    0.0000    0.0000 C   0  0  0  0  0  0  0  0  0  0  0  0
   -0.7500    1.2990    0.0000 C   0  0  0  0  0  0  0  0  0  0  0  0
    0.7500    1.2990    0.0000 C   0  0  0  0  0  0  0  0  0  0  0  0
    1.5000    2.5981    0.0000 C   0  0  0  0  0  0  0  0  0  0  0  0
    3.0000    2.5981    0.0000 O   0  0  0  0  0  0  0  0  0  0  0  0
   -3.0000    0.0000    0.0000 N   0  0  0  0  0  4  0  0  0  0  0  0
   -3.7500    1.2990    0.0000 O   0  0  0  0  0  1  0  0  0  0  0  0
   -3.7500   -1.2990    0.0000 O   0  0  0  0  0  0  0  0  0  0  0  0
  1  2  1  0
  2  3  2  0
  3  4  1  0
  4  5  2  0
  5  6  1  0
  6  7  2  0
  7  8  1  0
  8  9  2  0
  5 10  1  0
 10 11  1  0
 10 12  2  0
  7  2  1  0
M  CHG  2  10   1  11  -1
M  END
>  <Name>  (38) 
5-Nitrosalicylaldehyde

>  <logK_La_z=3.0_T=25_I=0.1>  (38) 
2.73

$$$$

     RDKit          2D

 12 12  0  0  0  0  0  0  0  0999 V2000
    5.2500    1.2990    0.0000 C   0  0  0  0  0  0  0  0  0  0  0  0
    3.7500    1.2990    0.0000 O   0  0  0  0  0  0  0  0  0  0  0  0
    3.0000    0.0000    0.0000 C   0  0  0  0  0  0  0  0  0  0  0  0
    3.7500   -1.2990    0.0000 C   0  0  0  0  0  0  0  0  0  0  0  0
    5.2500   -1.2990    0.0000 O   0  0  0  0  0  0  0  0  0  0  0  0
    3.0000   -2.5981    0.0000 O   0  0  0  0  0  0  0  0  0  0  0  0
    1.5000    0.0000    0.0000 C   0  0  0  0  0  0  0  0  0  0  0  0
    0.7500   -1.2990    0.0000 C   0  0  0  0  0  0  0  0  0  0  0  0
   -0.7500   -1.2990    0.0000 C   0  0  0  0  0  0  0  0  0  0  0  0
   -1.5000    0.0000    0.0000 C   0  0  0  0  0  0  0  0  0  0  0  0
   -0.7500    1.2990    0.0000 C   0  0  0  0  0  0  0  0  0  0  0  0
    0.7500    1.2990    0.0000 C   0  0  0  0  0  0  0  0  0  0  0  0
  1  2  1  0
  2  3  1  0
  3  4  1  0
  4  5  1  0
  4  6  2  0
  3  7  1  0
  7  8  2  0
  8  9  1  0
  9 10  2  0
 10 11  1  0
 11 12  2  0
 12  7  1  0
M  END
>  <Name>  (39) 
2-Phenyl-2-methoxyethanoic acid

>  <logK_La_z=3.0_T=25_I=0.1>  (39) 
2.09

$$$$

     RDKit          2D

  7  6  0  0  0  0  0  0  0  0999 V2000
    0.0000    0.0000    0.0000 C   0  0  0  0  0  0  0  0  0  0  0  0
    1.2990    0.7500    0.0000 C   0  0  0  0  0  0  0  0  0  0  0  0
    2.5981    1.5000    0.0000 C   0  0  0  0  0  0  0  0  0  0  0  0
    0.5490    2.0490    0.0000 O   0  0  0  0  0  0  0  0  0  0  0  0
    2.0490   -0.5490    0.0000 C   0  0  0  0  0  0  0  0  0  0  0  0
    3.5490   -0.5490    0.0000 O   0  0  0  0  0  0  0  0  0  0  0  0
    1.2990   -1.8481    0.0000 O   0  0  0  0  0  0  0  0  0  0  0  0
  1  2  1  0
  2  3  1  0
  2  4  1  0
  2  5  1  0
  5  6  1  0
  5  7  2  0
M  END
>  <Name>  (40) 
2-Hydroxy-2-methylpropanoic acid

>  <logK_La_z=3.0_T=25_I=0.1>  (40) 
2.433333333333333

>  <logK_La_z=3.0_T=25_I=0.5>  (40) 
2.22

>  <logK_La_z=3.0_T=25_I=1.0>  (40) 
2.16

>  <logK_La_z=3.0_T=25_I=2.0>  (40) 
2.28

$$$$

     RDKit          2D

 10 10  0  0  0  0  0  0  0  0999 V2000
    3.0000    0.0000    0.0000 N   0  0  0  0  0  0  0  0  0  0  0  0
    1.5000    0.0000    0.0000 C   0  0  0  0  0  0  0  0  0  0  0  0
    0.7500   -1.2990    0.0000 C   0  0  0  0  0  0  0  0  0  0  0  0
   -0.7500   -1.2990    0.0000 C   0  0  0  0  0  0  0  0  0  0  0  0
   -1.5000    0.0000    0.0000 C   0  0  0  0  0  0  0  0  0  0  0  0
   -0.7500    1.2990    0.0000 C   0  0  0  0  0  0  0  0  0  0  0  0
    0.7500    1.2990    0.0000 C   0  0  0  0  0  0  0  0  0  0  0  0
   -3.0000    0.0000    0.0000 C   0  0  0  0  0  0  0  0  0  0  0  0
   -3.7500    1.2990    0.0000 O   0  0  0  0  0  0  0  0  0  0  0  0
   -3.7500   -1.2990    0.0000 O   0  0  0  0  0  0  0  0  0  0  0  0
  1  2  1  0
  2  3  2  0
  3  4  1  0
  4  5  2  0
  5  6  1  0
  6  7  2  0
  5  8  1  0
  8  9  1  0
  8 10  2  0
  7  2  1  0
M  END
>  <Name>  (41) 
4-Aminobenzoic acid

>  <logK_La_z=3.0_T=25_I=0.1>  (41) 
1.91

$$$$

     RDKit          2D

  8  7  0  0  0  0  0  0  0  0999 V2000
   -2.5981    0.0000    0.0000 O   0  0  0  0  0  0  0  0  0  0  0  0
   -1.2990    0.7500    0.0000 C   0  0  0  0  0  0  0  0  0  0  0  0
   -1.2990    2.2500    0.0000 O   0  0  0  0  0  0  0  0  0  0  0  0
    0.0000    0.0000    0.0000 C   0  0  0  0  0  0  0  0  0  0  0  0
    1.2990    0.7500    0.0000 C   0  0  0  0  0  0  0  0  0  0  0  0
    2.5981   -0.0000    0.0000 C   0  0  0  0  0  0  0  0  0  0  0  0
    3.8971    0.7500    0.0000 O   0  0  0  0  0  0  0  0  0  0  0  0
    2.5981   -1.5000    0.0000 O   0  0  0  0  0  0  0  0  0  0  0  0
  1  2  1  0
  2  3  2  0
  2  4  1  0
  4  5  1  0
  5  6  1  0
  6  7  1  0
  6  8  2  0
M  END
>  <Name>  (42) 
1,4-Butanedioic acid

>  <logK_La_z=3.0_T=25_I=0.1>  (42) 
3.4033333333333338

>  <logK_La_z=3.0_T=25_I=0.0>  (42) 
3.96

$$$$

     RDKit          2D

 66 72  0  0  0  0  0  0  0  0999 V2000
    3.7500   -1.2990    0.0000 O   0  0  0  0  0  0  0  0  0  0  0  0
    3.0000    0.0000    0.0000 C   0  0  0  0  0  0  0  0  0  0  0  0
    1.5000    0.0000    0.0000 C   0  0  0  0  0  0  0  0  0  0  0  0
    0.7500   -1.2990    0.0000 O   0  0  0  0  0  0  0  0  0  0  0  0
   -0.7500   -1.2990    0.0000 C   0  0  0  0  0  0  0  0  0  0  0  0
   -1.6240   -4.0331    0.0000 O   0  0  0  0  0  0  0  0  0  0  0  0
   -1.4672   -5.5249    0.0000 C   0  0  0  0  0  0  0  0  0  0  0  0
   -0.5181   -7.1687    0.0000 C   0  0  0  0  0  0  0  0  0  0  0  0
   -2.3740   -7.5616    0.0000 O   0  0  0  0  0  0  0  0  0  0  0  0
   -0.1991   -7.7214    0.0000 C   0  0  0  0  0  0  0  0  0  0  0  0
   -1.4672   -9.1322    0.0000 O   0  0  0  0  0  0  0  0  0  0  0  0
    0.7500   -9.3652    0.0000 C   0  0  0  0  0  0  0  0  0  0  0  0
    0.2865   -7.9386    0.0000 O   0  0  0  0  0  0  0  0  0  0  0  0
   -0.4635   -6.6396    0.0000 C   0  0  0  0  0  0  0  0  0  0  0  0
    0.7500   -5.7579    0.0000 C   0  0  0  0  0  0  0  0  0  0  0  0
    2.1203   -6.3680    0.0000 O   0  0  0  0  0  0  0  0  0  0  0  0
    1.9635  -10.2469    0.0000 O   0  0  0  0  0  0  0  0  0  0  0  0
    3.3338  -10.8570    0.0000 C   0  0  0  0  0  0  0  0  0  0  0  0
    4.8011  -11.1689    0.0000 C   0  0  0  0  0  0  0  0  0  0  0  0
    4.6443  -12.6606    0.0000 O   0  0  0  0  0  0  0  0  0  0  0  0
    6.3011  -11.1689    0.0000 C   0  0  0  0  0  0  0  0  0  0  0  0
    6.4579  -12.6606    0.0000 O   0  0  0  0  0  0  0  0  0  0  0  0
    7.7683  -10.8570    0.0000 C   0  0  0  0  0  0  0  0  0  0  0  0
    6.3011  -10.5451    0.0000 O   0  0  0  0  0  0  0  0  0  0  0  0
    4.8011  -10.5451    0.0000 C   0  0  0  0  0  0  0  0  0  0  0  0
    4.6443   -9.0533    0.0000 C   0  0  0  0  0  0  0  0  0  0  0  0
    5.8578   -8.1717    0.0000 O   0  0  0  0  0  0  0  0  0  0  0  0
    9.1386  -10.2469    0.0000 O   0  0  0  0  0  0  0  0  0  0  0  0
   10.3521   -9.3652    0.0000 C   0  0  0  0  0  0  0  0  0  0  0  0
   11.3558   -8.2505    0.0000 C   0  0  0  0  0  0  0  0  0  0  0  0
   12.5694   -9.1322    0.0000 O   0  0  0  0  0  0  0  0  0  0  0  0
   12.1058   -6.9515    0.0000 C   0  0  0  0  0  0  0  0  0  0  0  0
   13.4761   -7.5616    0.0000 O   0  0  0  0  0  0  0  0  0  0  0  0
   12.5694   -5.5249    0.0000 C   0  0  0  0  0  0  0  0  0  0  0  0
   11.5657   -6.6396    0.0000 O   0  0  0  0  0  0  0  0  0  0  0  0
   10.8157   -7.9386    0.0000 C   0  0  0  0  0  0  0  0  0  0  0  0
    9.4453   -7.3285    0.0000 C   0  0  0  0  0  0  0  0  0  0  0  0
    9.2885   -5.8367    0.0000 O   0  0  0  0  0  0  0  0  0  0  0  0
   12.7261   -4.0331    0.0000 O   0  0  0  0  0  0  0  0  0  0  0  0
   12.5694   -2.5413    0.0000 C   0  0  0  0  0  0  0  0  0  0  0  0
   12.1058   -1.1147    0.0000 C   0  0  0  0  0  0  0  0  0  0  0  0
   13.4761   -0.5046    0.0000 O   0  0  0  0  0  0  0  0  0  0  0  0
   11.3558    0.1843    0.0000 C   0  0  0  0  0  0  0  0  0  0  0  0
   12.5694    1.0660    0.0000 O   0  0  0  0  0  0  0  0  0  0  0  0
   10.3521    1.2990    0.0000 C   0  0  0  0  0  0  0  0  0  0  0  0
   10.8157   -0.1275    0.0000 O   0  0  0  0  0  0  0  0  0  0  0  0
   11.5657   -1.4266    0.0000 C   0  0  0  0  0  0  0  0  0  0  0  0
   10.3521   -2.3083    0.0000 C   0  0  0  0  0  0  0  0  0  0  0  0
    8.9818   -1.6982    0.0000 O   0  0  0  0  0  0  0  0  0  0  0  0
    9.1386    2.1807    0.0000 O   0  0  0  0  0  0  0  0  0  0  0  0
    7.7683    2.7908    0.0000 C   0  0  0  0  0  0  0  0  0  0  0  0
    6.3011    3.1027    0.0000 C   0  0  0  0  0  0  0  0  0  0  0  0
    6.4579    4.5945    0.0000 O   0  0  0  0  0  0  0  0  0  0  0  0
    4.8011    3.1027    0.0000 C   0  0  0  0  0  0  0  0  0  0  0  0
    4.6443    4.5945    0.0000 O   0  0  0  0  0  0  0  0  0  0  0  0
    3.3338    2.7908    0.0000 C   0  0  0  0  0  0  0  0  0  0  0  0
    4.8011    2.4790    0.0000 O   0  0  0  0  0  0  0  0  0  0  0  0
    6.3011    2.4790    0.0000 C   0  0  0  0  0  0  0  0  0  0  0  0
    6.4579    0.9872    0.0000 C   0  0  0  0  0  0  0  0  0  0  0  0
    5.2443    0.1055    0.0000 O   0  0  0  0  0  0  0  0  0  0  0  0
    1.9635    2.1807    0.0000 O   0  0  0  0  0  0  0  0  0  0  0  0
    0.7500    1.2990    0.0000 C   0  0  0  0  0  0  0  0  0  0  0  0
   -0.7500    1.2990    0.0000 C   0  0  0  0  0  0  0  0  0  0  0  0
   -1.5000    2.5981    0.0000 O   0  0  0  0  0  0  0  0  0  0  0  0
   -1.5000    0.0000    0.0000 C   0  0  0  0  0  0  0  0  0  0  0  0
   -3.0000    0.0000    0.0000 O   0  0  0  0  0  0  0  0  0  0  0  0
  1  2  1  0
  2  3  1  0
  3  4  1  0
  5  4  1  6
  5  6  1  0
  6  7  1  0
  7  8  1  0
  8  9  1  0
  8 10  1  0
 10 11  1  0
 10 12  1  0
 12 13  1  1
 13 14  1  0
 14 15  1  0
 15 16  1  0
 12 17  1  0
 17 18  1  0
 18 19  1  0
 19 20  1  0
 19 21  1  0
 21 22  1  0
 21 23  1  0
 23 24  1  1
 24 25  1  0
 25 26  1  0
 26 27  1  0
 23 28  1  0
 28 29  1  0
 29 30  1  0
 30 31  1  0
 30 32  1  0
 32 33  1  0
 32 34  1  0
 34 35  1  1
 35 36  1  0
 36 37  1  0
 37 38  1  0
 34 39  1  0
 39 40  1  0
 40 41  1  0
 41 42  1  0
 41 43  1  0
 43 44  1  0
 43 45  1  0
 45 46  1  1
 46 47  1  0
 47 48  1  0
 48 49  1  0
 45 50  1  0
 50 51  1  0
 51 52  1  0
 52 53  1  0
 52 54  1  0
 54 55  1  0
 54 56  1  0
 56 57  1  1
 57 58  1  0
 58 59  1  0
 59 60  1  0
 56 61  1  0
 61 62  1  0
 62 63  1  6
 63 64  1  0
 63 65  1  0
 65 66  1  0
 62  3  1  0
 65  5  1  0
  7 14  1  1
 18 25  1  1
 29 36  1  1
 40 47  1  1
 51 58  1  1
M  END
>  <Name>  (43) 
alpha-Cyclodextrin

>  <logK_La_z=3.0_T=25_I=0.1>  (43) 
3.85

$$$$

     RDKit          2D

  5  4  0  0  0  0  0  0  0  0999 V2000
   -1.2990    0.7500    0.0000 N   0  0  0  0  0  0  0  0  0  0  0  0
    0.0000    0.0000    0.0000 C   0  0  0  0  0  0  0  0  0  0  0  0
    1.2990    0.7500    0.0000 C   0  0  0  0  0  0  0  0  0  0  0  0
    2.5981   -0.0000    0.0000 O   0  0  0  0  0  0  0  0  0  0  0  0
    1.2990    2.2500    0.0000 O   0  0  0  0  0  0  0  0  0  0  0  0
  1  2  1  0
  2  3  1  0
  3  4  1  0
  3  5  2  0
M  END
>  <Name>  (44) 
2-Aminoethanoic acid

>  <logK_La_z=3.0_T=25_I=0.1>  (44) 
3.84

$$$$

     RDKit          2D

  4  3  0  0  0  0  0  0  0  0999 V2000
    0.0000    0.0000    0.0000 C   0  0  0  0  0  0  0  0  0  0  0  0
    1.2990    0.7500    0.0000 C   0  0  0  0  0  0  0  0  0  0  0  0
    2.5981   -0.0000    0.0000 O   0  0  0  0  0  0  0  0  0  0  0  0
    1.2990    2.2500    0.0000 O   0  0  0  0  0  0  0  0  0  0  0  0
  1  2  1  0
  2  3  1  0
  2  4  2  0
M  END
>  <Name>  (45) 
Ethanoic acid

>  <logK_La_z=3.0_T=25_I=0.1>  (45) 
1.86

>  <logK_La_z=3.0_T=25_I=1.0>  (45) 
1.54

>  <logK_La_z=3.0_T=25_I=2.0>  (45) 
1.57

>  <logK_La_z=3.0_T=25_I=0.0>  (45) 
2.55

$$$$

     RDKit          2D

 12 12  0  0  0  0  0  0  0  0999 V2000
    3.7500   -1.2990    0.0000 O   0  0  0  0  0  0  0  0  0  0  0  0
    3.0000    0.0000    0.0000 C   0  0  0  0  0  0  0  0  0  0  0  0
    3.7500    1.2990    0.0000 O   0  0  0  0  0  0  0  0  0  0  0  0
    1.5000    0.0000    0.0000 C   0  0  0  0  0  0  0  0  0  0  0  0
    0.7500   -1.2990    0.0000 C   0  0  0  0  0  0  0  0  0  0  0  0
   -0.7500   -1.2990    0.0000 C   0  0  0  0  0  0  0  0  0  0  0  0
   -1.5000    0.0000    0.0000 C   0  0  0  0  0  0  0  0  0  0  0  0
   -0.7500    1.2990    0.0000 C   0  0  0  0  0  0  0  0  0  0  0  0
    0.7500    1.2990    0.0000 N   0  0  0  0  0  0  0  0  0  0  0  0
   -1.5000    2.5981    0.0000 C   0  0  0  0  0  0  0  0  0  0  0  0
   -0.7500    3.8971    0.0000 O   0  0  0  0  0  0  0  0  0  0  0  0
   -3.0000    2.5981    0.0000 O   0  0  0  0  0  0  0  0  0  0  0  0
  1  2  1  0
  2  3  2  0
  2  4  1  0
  4  5  1  0
  5  6  1  0
  6  7  1  0
  7  8  1  0
  8  9  1  0
  8 10  1  0
 10 11  1  0
 10 12  2  0
  9  4  1  0
M  END
>  <Name>  (46) 
Piperidine-2,6-dicarboxylic acid

>  <logK_La_z=3.0_T=25_I=0.1>  (46) 
5.31

$$$$

     RDKit          2D

  9  8  0  0  0  0  0  0  0  0999 V2000
    0.0000    0.0000    0.0000 C   0  0  0  0  0  0  0  0  0  0  0  0
    1.2990    0.7500    0.0000 C   0  0  0  0  0  0  0  0  0  0  0  0
    2.5981    1.5000    0.0000 C   0  0  0  0  0  0  0  0  0  0  0  0
    2.5981    3.0000    0.0000 O   0  0  0  0  0  0  0  0  0  0  0  0
    2.0490   -0.5490    0.0000 C   0  0  0  0  0  0  0  0  0  0  0  0
    3.5490   -0.5490    0.0000 O   0  0  0  0  0  0  0  0  0  0  0  0
    0.5490    2.0490    0.0000 C   0  0  0  0  0  0  0  0  0  0  0  0
    1.2990    3.3481    0.0000 O   0  0  0  0  0  0  0  0  0  0  0  0
   -0.9510    2.0490    0.0000 O   0  0  0  0  0  0  0  0  0  0  0  0
  1  2  1  0
  2  3  1  0
  3  4  1  0
  2  5  1  0
  5  6  1  0
  2  7  1  0
  7  8  1  0
  7  9  2  0
M  END
>  <Name>  (47) 
2,2-Bis(hydroxymethyl)propanoic acid

>  <logK_La_z=3.0_T=25_I=0.1>  (47) 
2.066666666666667

$$$$

     RDKit          2D

  7  6  0  0  0  0  0  0  0  0999 V2000
    0.0000    0.0000    0.0000 C   0  0  0  0  0  0  0  0  0  0  0  0
    1.2990    0.7500    0.0000 C   0  0  0  0  0  0  0  0  0  0  0  0
    2.5981   -0.0000    0.0000 C   0  0  0  0  0  0  0  0  0  0  0  0
    2.5981   -1.5000    0.0000 N   0  0  0  0  0  0  0  0  0  0  0  0
    3.8971    0.7500    0.0000 C   0  0  0  0  0  0  0  0  0  0  0  0
    5.1962   -0.0000    0.0000 O   0  0  0  0  0  0  0  0  0  0  0  0
    3.8971    2.2500    0.0000 O   0  0  0  0  0  0  0  0  0  0  0  0
  1  2  1  0
  2  3  1  0
  3  4  1  0
  3  5  1  0
  5  6  1  0
  5  7  2  0
M  END
>  <Name>  (48) 
2-Aminobutanoic acid

>  <logK_La_z=3.0_T=25_I=0.1>  (48) 
4.27

$$$$

     RDKit          2D

 12 11  0  0  0  0  0  0  0  0999 V2000
   -0.0000   -1.5000    0.0000 O   0  0  0  0  0  0  0  0  0  0  0  0
    0.0000    0.0000    0.0000 C   0  0  0  0  0  0  0  0  0  0  0  0
    1.2990    0.7500    0.0000 C   0  0  0  0  0  0  0  0  0  0  0  0
    1.2990    2.2500    0.0000 O   0  0  0  0  0  0  0  0  0  0  0  0
    2.5981   -0.0000    0.0000 C   0  0  0  0  0  0  0  0  0  0  0  0
    3.8971    0.7500    0.0000 O   0  0  0  0  0  0  0  0  0  0  0  0
    2.5981   -1.5000    0.0000 O   0  0  0  0  0  0  0  0  0  0  0  0
   -1.2990    0.7500    0.0000 C   0  0  0  0  0  0  0  0  0  0  0  0
   -1.2990    2.2500    0.0000 O   0  0  0  0  0  0  0  0  0  0  0  0
   -2.5981    0.0000    0.0000 C   0  0  0  0  0  0  0  0  0  0  0  0
   -3.8971    0.7500    0.0000 O   0  0  0  0  0  0  0  0  0  0  0  0
   -2.5981   -1.5000    0.0000 O   0  0  0  0  0  0  0  0  0  0  0  0
  1  2  1  0
  2  3  1  0
  3  4  1  0
  3  5  1  0
  5  6  1  0
  5  7  2  0
  2  8  1  0
  8  9  1  0
  8 10  1  0
 10 11  1  0
 10 12  2  0
M  END
>  <Name>  (49) 
2,3,4-Trihydroxypentanedioic acid

>  <logK_La_z=3.0_T=25_I=0.1>  (49) 
3.98

$$$$

     RDKit          2D

 15 15  0  0  0  0  0  0  0  0999 V2000
    5.2500   -1.2990    0.0000 O   0  0  0  0  0  0  0  0  0  0  0  0
    3.7500   -1.2990    0.0000 C   0  0  0  0  0  0  0  0  0  0  0  0
    3.0000    0.0000    0.0000 C   0  0  0  0  0  0  0  0  0  0  0  0
    1.5000    0.0000    0.0000 N   0  0  0  0  0  0  0  0  0  0  0  0
    0.7500   -1.2990    0.0000 C   0  0  0  0  0  0  0  0  0  0  0  0
   -0.7500   -1.2990    0.0000 C   0  0  0  0  0  0  0  0  0  0  0  0
   -1.5000    0.0000    0.0000 N   0  0  0  0  0  0  0  0  0  0  0  0
   -0.7500    1.2990    0.0000 C   0  0  0  0  0  0  0  0  0  0  0  0
    0.7500    1.2990    0.0000 C   0  0  0  0  0  0  0  0  0  0  0  0
   -3.0000    0.0000    0.0000 C   0  0  0  0  0  0  0  0  0  0  0  0
   -3.7500    1.2990    0.0000 C   0  0  0  0  0  0  0  0  0  0  0  0
   -5.2500    1.2990    0.0000 S   0  0  0  0  0  6  0  0  0  0  0  0
   -6.7500    1.2990    0.0000 O   0  0  0  0  0  0  0  0  0  0  0  0
   -5.2500    2.7990    0.0000 O   0  0  0  0  0  0  0  0  0  0  0  0
   -5.2500   -0.2010    0.0000 O   0  0  0  0  0  0  0  0  0  0  0  0
  1  2  1  0
  2  3  1  0
  3  4  1  0
  4  5  1  0
  5  6  1  0
  6  7  1  0
  7  8  1  0
  8  9  1  0
  7 10  1  0
 10 11  1  0
 11 12  1  0
 12 13  1  0
 12 14  2  0
 12 15  2  0
  9  4  1  0
M  END
>  <Name>  (50) 
4-(2-Hydroxyethyl)-1-piperazine-ethanesulfonic acid

>  <logK_La_z=3.0_T=25_I=0.1>  (50) 
3.33

$$$$

     RDKit          2D

  8  8  0  0  0  0  0  0  0  0999 V2000
    3.5260   -1.2990    0.0000 O   0  0  0  0  0  0  0  0  0  0  0  0
    2.7760    0.0000    0.0000 C   0  0  0  0  0  0  0  0  0  0  0  0
    3.5260    1.2990    0.0000 O   0  0  0  0  0  0  0  0  0  0  0  0
    1.2760    0.0000    0.0000 C   0  0  0  0  0  0  0  0  0  0  0  0
    0.3943    1.2135    0.0000 S   0  0  0  0  0  0  0  0  0  0  0  0
   -1.0323    0.7500    0.0000 C   0  0  0  0  0  0  0  0  0  0  0  0
   -1.0323   -0.7500    0.0000 C   0  0  0  0  0  0  0  0  0  0  0  0
    0.3943   -1.2135    0.0000 C   0  0  0  0  0  0  0  0  0  0  0  0
  1  2  1  0
  2  3  2  0
  2  4  1  0
  4  5  1  0
  5  6  1  0
  6  7  2  0
  7  8  1  0
  8  4  2  0
M  END
>  <Name>  (51) 
Thiophene-2-carboxylic acid

>  <logK_La_z=3.0_T=25_I=0.1>  (51) 
1.7700000000000002

$$$$

     RDKit          2D

 11 11  0  0  0  0  0  0  0  0999 V2000
    3.7500    1.2990    0.0000 O   0  0  0  0  0  0  0  0  0  0  0  0
    3.0000    0.0000    0.0000 C   0  0  0  0  0  0  0  0  0  0  0  0
    3.7500   -1.2990    0.0000 C   0  0  0  0  0  0  0  0  0  0  0  0
    5.2500   -1.2990    0.0000 O   0  0  0  0  0  0  0  0  0  0  0  0
    3.0000   -2.5981    0.0000 O   0  0  0  0  0  0  0  0  0  0  0  0
    1.5000    0.0000    0.0000 C   0  0  0  0  0  0  0  0  0  0  0  0
    0.7500   -1.2990    0.0000 C   0  0  0  0  0  0  0  0  0  0  0  0
   -0.7500   -1.2990    0.0000 C   0  0  0  0  0  0  0  0  0  0  0  0
   -1.5000    0.0000    0.0000 C   0  0  0  0  0  0  0  0  0  0  0  0
   -0.7500    1.2990    0.0000 C   0  0  0  0  0  0  0  0  0  0  0  0
    0.7500    1.2990    0.0000 C   0  0  0  0  0  0  0  0  0  0  0  0
  1  2  1  0
  2  3  1  0
  3  4  1  0
  3  5  2  0
  2  6  1  0
  6  7  2  0
  7  8  1  0
  8  9  2  0
  9 10  1  0
 10 11  2  0
 11  6  1  0
M  END
>  <Name>  (52) 
2-Phenyl-2-hydroxyethanoic acid

>  <logK_La_z=3.0_T=25_I=0.1>  (52) 
2.4599999999999995

>  <logK_La_z=3.0_T=25_I=2.0>  (52) 
1.93

$$$$

     RDKit          2D

  9  8  0  0  0  0  0  0  0  0999 V2000
    0.0000    0.0000    0.0000 C   0  0  0  0  0  0  0  0  0  0  0  0
    1.2990    0.7500    0.0000 S   0  0  0  0  0  0  0  0  0  0  0  0
    2.5981   -0.0000    0.0000 C   0  0  0  0  0  0  0  0  0  0  0  0
    3.8971    0.7500    0.0000 C   0  0  0  0  0  0  0  0  0  0  0  0
    5.1962   -0.0000    0.0000 C   0  0  0  0  0  0  0  0  0  0  0  0
    5.1962   -1.5000    0.0000 N   0  0  0  0  0  0  0  0  0  0  0  0
    6.4952    0.7500    0.0000 C   0  0  0  0  0  0  0  0  0  0  0  0
    7.7942   -0.0000    0.0000 O   0  0  0  0  0  0  0  0  0  0  0  0
    6.4952    2.2500    0.0000 O   0  0  0  0  0  0  0  0  0  0  0  0
  1  2  1  0
  2  3  1  0
  3  4  1  0
  4  5  1  0
  5  6  1  0
  5  7  1  0
  7  8  1  0
  7  9  2  0
M  END
>  <Name>  (53) 
2-Amino-4-(methylthio)butanoic acid

>  <logK_La_z=3.0_T=25_I=0.1>  (53) 
4.58

$$$$

     RDKit          2D

 12 12  0  0  0  0  0  0  0  0999 V2000
    3.7500   -1.2990    0.0000 O   0  0  0  0  0  0  0  0  0  0  0  0
    3.0000    0.0000    0.0000 C   0  0  0  0  0  0  0  0  0  0  0  0
    3.7500    1.2990    0.0000 O   0  0  0  0  0  0  0  0  0  0  0  0
    1.5000    0.0000    0.0000 C   0  0  0  0  0  0  0  0  0  0  0  0
    0.7500   -1.2990    0.0000 C   0  0  0  0  0  0  0  0  0  0  0  0
   -0.7500   -1.2990    0.0000 C   0  0  0  0  0  0  0  0  0  0  0  0
   -1.5000    0.0000    0.0000 C   0  0  0  0  0  0  0  0  0  0  0  0
   -0.7500    1.2990    0.0000 C   0  0  0  0  0  0  0  0  0  0  0  0
    0.7500    1.2990    0.0000 C   0  0  0  0  0  0  0  0  0  0  0  0
   -1.5000    2.5981    0.0000 N   0  0  0  0  0  4  0  0  0  0  0  0
   -0.7500    3.8971    0.0000 O   0  0  0  0  0  1  0  0  0  0  0  0
   -3.0000    2.5981    0.0000 O   0  0  0  0  0  0  0  0  0  0  0  0
  1  2  1  0
  2  3  2  0
  2  4  1  0
  4  5  2  0
  5  6  1  0
  6  7  2  0
  7  8  1  0
  8  9  2  0
  8 10  1  0
 10 11  1  0
 10 12  2  0
  9  4  1  0
M  CHG  2  10   1  11  -1
M  END
>  <Name>  (54) 
3-Nitrobenzoic acid

>  <logK_La_z=3.0_T=25_I=0.1>  (54) 
1.57

$$$$

     RDKit          2D

 10 10  0  0  0  0  0  0  0  0999 V2000
    3.7500   -1.2990    0.0000 O   0  0  0  0  0  0  0  0  0  0  0  0
    3.0000    0.0000    0.0000 C   0  0  0  0  0  0  0  0  0  0  0  0
    1.5000    0.0000    0.0000 C   0  0  0  0  0  0  0  0  0  0  0  0
    0.7500   -1.2990    0.0000 C   0  0  0  0  0  0  0  0  0  0  0  0
   -0.7500   -1.2990    0.0000 C   0  0  0  0  0  0  0  0  0  0  0  0
   -1.5000   -2.5981    0.0000 O   0  0  0  0  0  0  0  0  0  0  0  0
   -1.5000    0.0000    0.0000 C   0  0  0  0  0  0  0  0  0  0  0  0
   -0.7500    1.2990    0.0000 C   0  0  0  0  0  0  0  0  0  0  0  0
    0.7500    1.2990    0.0000 O   0  0  0  0  0  0  0  0  0  0  0  0
   -3.0000    0.0000    0.0000 O   0  0  0  0  0  0  0  0  0  0  0  0
  1  2  1  0
  2  3  1  0
  3  4  2  0
  4  5  1  0
  5  6  2  0
  5  7  1  0
  7  8  2  0
  8  9  1  0
  7 10  1  0
  9  3  1  0
M  END
>  <Name>  (55) 
5-Hydroxy-2-(hydroxymethyl)-4H-pyran-4-one

>  <logK_La_z=3.0_T=25_I=0.1>  (55) 
5.31

>  <logK_La_z=3.0_T=25_I=2.0>  (55) 
5.12

$$$$

     RDKit          2D

 13 13  0  0  0  0  0  0  0  0999 V2000
    3.7500   -1.2990    0.0000 O   0  0  0  0  0  0  0  0  0  0  0  0
    3.0000    0.0000    0.0000 C   0  0  0  0  0  0  0  0  0  0  0  0
    3.7500    1.2990    0.0000 O   0  0  0  0  0  0  0  0  0  0  0  0
    1.5000    0.0000    0.0000 C   0  0  0  0  0  0  0  0  0  0  0  0
    0.7500   -1.2990    0.0000 C   0  0  0  0  0  0  0  0  0  0  0  0
   -0.7500   -1.2990    0.0000 C   0  0  0  0  0  0  0  0  0  0  0  0
   -1.5000    0.0000    0.0000 C   0  0  0  0  0  0  0  0  0  0  0  0
   -0.7500    1.2990    0.0000 C   0  0  0  0  0  0  0  0  0  0  0  0
    0.7500    1.2990    0.0000 C   0  0  0  0  0  0  0  0  0  0  0  0
    1.5000    2.5981    0.0000 S   0  0  0  0  0  6  0  0  0  0  0  0
    2.2500    3.8971    0.0000 O   0  0  0  0  0  0  0  0  0  0  0  0
    0.2010    3.3481    0.0000 O   0  0  0  0  0  0  0  0  0  0  0  0
    2.7990    1.8481    0.0000 O   0  0  0  0  0  0  0  0  0  0  0  0
  1  2  1  0
  2  3  2  0
  2  4  1  0
  4  5  2  0
  5  6  1  0
  6  7  2  0
  7  8  1  0
  8  9  2  0
  9 10  1  0
 10 11  1  0
 10 12  2  0
 10 13  2  0
  9  4  1  0
M  END
>  <Name>  (56) 
2-Carboxybenzenesulfonic acid

>  <logK_La_z=3.0_T=25_I=0.1>  (56) 
2.64

$$$$

     RDKit          2D

  7  6  0  0  0  0  0  0  0  0999 V2000
    1.2990    2.2500    0.0000 N   0  0  0  0  0  0  0  0  0  0  0  0
    1.2990    0.7500    0.0000 C   0  0  0  0  0  0  0  0  0  0  0  0
    0.0000    0.0000    0.0000 C   0  0  0  0  0  0  0  0  0  0  0  0
   -1.2990    0.7500    0.0000 O   0  0  0  0  0  0  0  0  0  0  0  0
    2.5981   -0.0000    0.0000 C   0  0  0  0  0  0  0  0  0  0  0  0
    3.8971    0.7500    0.0000 O   0  0  0  0  0  0  0  0  0  0  0  0
    2.5981   -1.5000    0.0000 O   0  0  0  0  0  0  0  0  0  0  0  0
  1  2  1  0
  2  3  1  0
  3  4  1  0
  2  5  1  0
  5  6  1  0
  5  7  2  0
M  END
>  <Name>  (57) 
2-Amino-3-hydroxypropanoic acid

>  <logK_La_z=3.0_T=25_I=0.1>  (57) 
4.51

$$$$

     RDKit          2D

 10 10  0  0  0  0  0  0  0  0999 V2000
    3.0000    0.0000    0.0000 N   0  0  0  0  0  0  0  0  0  0  0  0
    1.5000    0.0000    0.0000 C   0  0  0  0  0  0  0  0  0  0  0  0
    0.7500   -1.2990    0.0000 C   0  0  0  0  0  0  0  0  0  0  0  0
   -0.7500   -1.2990    0.0000 C   0  0  0  0  0  0  0  0  0  0  0  0
   -1.5000    0.0000    0.0000 C   0  0  0  0  0  0  0  0  0  0  0  0
   -0.7500    1.2990    0.0000 C   0  0  0  0  0  0  0  0  0  0  0  0
    0.7500    1.2990    0.0000 C   0  0  0  0  0  0  0  0  0  0  0  0
    1.5000    2.5981    0.0000 C   0  0  0  0  0  0  0  0  0  0  0  0
    3.0000    2.5981    0.0000 O   0  0  0  0  0  0  0  0  0  0  0  0
    0.7500    3.8971    0.0000 O   0  0  0  0  0  0  0  0  0  0  0  0
  1  2  1  0
  2  3  2  0
  3  4  1  0
  4  5  2  0
  5  6  1  0
  6  7  2  0
  7  8  1  0
  8  9  1  0
  8 10  2  0
  7  2  1  0
M  END
>  <Name>  (58) 
2-Aminobenzoic acid

>  <logK_La_z=3.0_T=25_I=0.1>  (58) 
1.96

$$$$

     RDKit          2D

 12 12  0  0  0  0  0  0  0  0999 V2000
    3.7500   -1.2990    0.0000 O   0  0  0  0  0  0  0  0  0  0  0  0
    3.0000    0.0000    0.0000 C   0  0  0  0  0  0  0  0  0  0  0  0
    3.7500    1.2990    0.0000 O   0  0  0  0  0  0  0  0  0  0  0  0
    1.5000    0.0000    0.0000 C   0  0  0  0  0  0  0  0  0  0  0  0
    0.7500   -1.2990    0.0000 C   0  0  0  0  0  0  0  0  0  0  0  0
   -0.7500   -1.2990    0.0000 C   0  0  0  0  0  0  0  0  0  0  0  0
   -1.5000    0.0000    0.0000 C   0  0  0  0  0  0  0  0  0  0  0  0
   -0.7500    1.2990    0.0000 C   0  0  0  0  0  0  0  0  0  0  0  0
    0.7500    1.2990    0.0000 C   0  0  0  0  0  0  0  0  0  0  0  0
   -1.5000    2.5981    0.0000 C   0  0  0  0  0  0  0  0  0  0  0  0
   -0.7500    3.8971    0.0000 O   0  0  0  0  0  0  0  0  0  0  0  0
   -3.0000    2.5981    0.0000 O   0  0  0  0  0  0  0  0  0  0  0  0
  1  2  1  0
  2  3  2  0
  2  4  1  0
  4  5  2  0
  5  6  1  0
  6  7  2  0
  7  8  1  0
  8  9  2  0
  8 10  1  0
 10 11  1  0
 10 12  2  0
  9  4  1  0
M  END
>  <Name>  (59) 
Benzene-1,3-dicarboxylic acid

>  <logK_La_z=3.0_T=25_I=0.1>  (59) 
2.15

$$$$

     RDKit          2D

  9  9  0  0  0  0  0  0  0  0999 V2000
    3.7500   -1.2990    0.0000 O   0  0  0  0  0  0  0  0  0  0  0  0
    3.0000    0.0000    0.0000 C   0  0  0  0  0  0  0  0  0  0  0  0
    3.7500    1.2990    0.0000 O   0  0  0  0  0  0  0  0  0  0  0  0
    1.5000    0.0000    0.0000 C   0  0  0  0  0  0  0  0  0  0  0  0
    0.7500   -1.2990    0.0000 C   0  0  0  0  0  0  0  0  0  0  0  0
   -0.7500   -1.2990    0.0000 C   0  0  0  0  0  0  0  0  0  0  0  0
   -1.5000    0.0000    0.0000 C   0  0  0  0  0  0  0  0  0  0  0  0
   -0.7500    1.2990    0.0000 N   0  0  0  0  0  0  0  0  0  0  0  0
    0.7500    1.2990    0.0000 C   0  0  0  0  0  0  0  0  0  0  0  0
  1  2  1  0
  2  3  2  0
  2  4  1  0
  4  5  2  0
  5  6  1  0
  6  7  2  0
  7  8  1  0
  8  9  2  0
  9  4  1  0
M  END
>  <Name>  (60) 
3-Pyridine-carboxylic acid

>  <logK_La_z=3.0_T=25_I=0.1>  (60) 
2.0033333333333334

$$$$

     RDKit          2D

 21 22  0  0  0  0  0  0  0  0999 V2000
   -1.5000   -5.1962    0.0000 O   0  0  0  0  0  0  0  0  0  0  0  0
   -0.7500   -3.8971    0.0000 C   0  0  0  0  0  0  0  0  0  0  0  0
    0.7500   -3.8971    0.0000 C   0  0  0  0  0  0  0  0  0  0  0  0
    1.5000   -2.5981    0.0000 C   0  0  0  0  0  0  0  0  0  0  0  0
    0.7500   -1.2990    0.0000 C   0  0  0  0  0  0  0  0  0  0  0  0
    1.5000    0.0000    0.0000 C   0  0  0  0  0  0  0  0  0  0  0  0
    0.7500    1.2990    0.0000 C   0  0  0  0  0  0  0  0  0  0  0  0
   -0.7500    1.2990    0.0000 C   0  0  0  0  0  0  0  0  0  0  0  0
   -1.5000    0.0000    0.0000 C   0  0  0  0  0  0  0  0  0  0  0  0
   -0.7500   -1.2990    0.0000 C   0  0  0  0  0  0  0  0  0  0  0  0
   -1.5000   -2.5981    0.0000 C   0  0  0  0  0  0  0  0  0  0  0  0
   -3.0000   -2.5981    0.0000 N   0  0  0  0  0  0  0  0  0  0  0  0
   -3.7500   -3.8971    0.0000 O   0  0  0  0  0  0  0  0  0  0  0  0
    1.5000    2.5981    0.0000 S   0  0  0  0  0  6  0  0  0  0  0  0
    2.2500    3.8971    0.0000 O   0  0  0  0  0  0  0  0  0  0  0  0
    2.7990    1.8481    0.0000 O   0  0  0  0  0  0  0  0  0  0  0  0
    0.2010    3.3481    0.0000 O   0  0  0  0  0  0  0  0  0  0  0  0
    1.5000   -5.1962    0.0000 S   0  0  0  0  0  6  0  0  0  0  0  0
    2.2500   -6.4952    0.0000 O   0  0  0  0  0  0  0  0  0  0  0  0
    2.7990   -4.4462    0.0000 O   0  0  0  0  0  0  0  0  0  0  0  0
    0.2010   -5.9462    0.0000 O   0  0  0  0  0  0  0  0  0  0  0  0
  1  2  1  0
  2  3  2  0
  3  4  1  0
  4  5  2  0
  5  6  1  0
  6  7  2  0
  7  8  1  0
  8  9  2  0
  9 10  1  0
 10 11  2  0
 11 12  1  0
 12 13  2  0
  7 14  1  0
 14 15  1  0
 14 16  2  0
 14 17  2  0
  3 18  1  0
 18 19  1  0
 18 20  2  0
 18 21  2  0
 11  2  1  0
 10  5  1  0
M  END
>  <Name>  (61) 
1-Nitroso-2-hydroxynaphthalene-3,6-disulfonic acid

>  <logK_La_z=3.0_T=25_I=0.1>  (61) 
5.03

$$$$

     RDKit          2D

 11 11  0  0  0  0  0  0  0  0999 V2000
    3.7500   -1.2990    0.0000 O   0  0  0  0  0  0  0  0  0  0  0  0
    3.0000    0.0000    0.0000 C   0  0  0  0  0  0  0  0  0  0  0  0
    1.5000    0.0000    0.0000 C   0  0  0  0  0  0  0  0  0  0  0  0
    0.7500   -1.2990    0.0000 C   0  0  0  0  0  0  0  0  0  0  0  0
   -0.7500   -1.2990    0.0000 C   0  0  0  0  0  0  0  0  0  0  0  0
   -1.5000   -2.5981    0.0000 O   0  0  0  0  0  0  0  0  0  0  0  0
   -1.5000    0.0000    0.0000 C   0  0  0  0  0  0  0  0  0  0  0  0
   -0.7500    1.2990    0.0000 C   0  0  0  0  0  0  0  0  0  0  0  0
   -1.5000    2.5981    0.0000 I   0  0  0  0  0  0  0  0  0  0  0  0
    0.7500    1.2990    0.0000 O   0  0  0  0  0  0  0  0  0  0  0  0
   -3.0000    0.0000    0.0000 O   0  0  0  0  0  0  0  0  0  0  0  0
  1  2  1  0
  2  3  1  0
  3  4  2  0
  4  5  1  0
  5  6  2  0
  5  7  1  0
  7  8  2  0
  8  9  1  0
  8 10  1  0
  7 11  1  0
 10  3  1  0
M  END
>  <Name>  (62) 
6-Iodo-5-hydroxy-2-hydroxymethyl-4H-pyran-4-one

>  <logK_La_z=3.0_T=25_I=0.1>  (62) 
4.71

$$$$

     RDKit          2D

  8  8  0  0  0  0  0  0  0  0999 V2000
    3.0000    0.0000    0.0000 O   0  0  0  0  0  0  0  0  0  0  0  0
    1.5000    0.0000    0.0000 C   0  0  0  0  0  0  0  0  0  0  0  0
    0.7500   -1.2990    0.0000 C   0  0  0  0  0  0  0  0  0  0  0  0
   -0.7500   -1.2990    0.0000 C   0  0  0  0  0  0  0  0  0  0  0  0
   -1.5000    0.0000    0.0000 C   0  0  0  0  0  0  0  0  0  0  0  0
   -0.7500    1.2990    0.0000 C   0  0  0  0  0  0  0  0  0  0  0  0
   -1.5000    2.5981    0.0000 O   0  0  0  0  0  0  0  0  0  0  0  0
    0.7500    1.2990    0.0000 C   0  0  0  0  0  0  0  0  0  0  0  0
  1  2  1  0
  2  3  2  0
  3  4  1  0
  4  5  2  0
  5  6  1  0
  6  7  1  0
  6  8  2  0
  8  2  1  0
M  END
>  <Name>  (63) 
1,3-Dihydroxybenzene

>  <logK_La_z=3.0_T=25_I=0.1>  (63) 
4.69

$$$$

     RDKit          2D

 17 17  0  0  0  0  0  0  0  0999 V2000
    5.2500    6.4952    0.0000 C   0  0  0  0  0  0  0  0  0  0  0  0
    4.5000    5.1962    0.0000 C   0  0  0  0  0  0  0  0  0  0  0  0
    5.2500    3.8971    0.0000 C   0  0  0  0  0  0  0  0  0  0  0  0
    4.5000    2.5981    0.0000 C   0  0  0  0  0  0  0  0  0  0  0  0
    5.2500    1.2990    0.0000 C   0  0  0  0  0  0  0  0  0  0  0  0
    6.7500    1.2990    0.0000 C   0  0  0  0  0  0  0  0  0  0  0  0
    7.5000    2.5981    0.0000 C   0  0  0  0  0  0  0  0  0  0  0  0
    4.5000    0.0000    0.0000 C   0  0  0  0  0  0  0  0  0  0  0  0
    3.0000    0.0000    0.0000 P   0  0  0  0  0  5  0  0  0  0  0  0
    3.0000   -1.5000    0.0000 O   0  0  0  0  0  0  0  0  0  0  0  0
    3.0000    1.5000    0.0000 O   0  0  0  0  0  0  0  0  0  0  0  0
    1.5000    0.0000    0.0000 C   0  0  0  0  0  0  0  0  0  0  0  0
    0.7500   -1.2990    0.0000 C   0  0  0  0  0  0  0  0  0  0  0  0
   -0.7500   -1.2990    0.0000 C   0  0  0  0  0  0  0  0  0  0  0  0
   -1.5000    0.0000    0.0000 C   0  0  0  0  0  0  0  0  0  0  0  0
   -0.7500    1.2990    0.0000 C   0  0  0  0  0  0  0  0  0  0  0  0
    0.7500    1.2990    0.0000 C   0  0  0  0  0  0  0  0  0  0  0  0
  1  2  1  0
  2  3  1  0
  3  4  1  0
  4  5  1  0
  5  6  1  0
  6  7  1  0
  5  8  1  0
  8  9  1  0
  9 10  1  0
  9 11  2  0
  9 12  1  0
 12 13  2  0
 13 14  1  0
 14 15  2  0
 15 16  1  0
 16 17  2  0
 17 12  1  0
M  END
>  <Name>  (64) 
Phenyl(2-ethylhexyl)phosphinic acid

>  <logK_La_z=3.0_T=25_I=0.1>  (64) 
3.27

$$$$

     RDKit          2D

 10 10  0  0  0  0  0  0  0  0999 V2000
    2.7760    0.0000    0.0000 O   0  0  0  0  0  0  0  0  0  0  0  0
    1.2760    0.0000    0.0000 C   0  0  0  0  0  0  0  0  0  0  0  0
    0.3943    1.2135    0.0000 C   0  0  0  0  0  0  0  0  0  0  0  0
    0.8578    2.6401    0.0000 O   0  0  0  0  0  0  0  0  0  0  0  0
   -1.0323    0.7500    0.0000 C   0  0  0  0  0  0  0  0  0  0  0  0
   -2.2458    1.6317    0.0000 O   0  0  0  0  0  0  0  0  0  0  0  0
   -1.0323   -0.7500    0.0000 C   0  0  0  0  0  0  0  0  0  0  0  0
   -2.2458   -1.6317    0.0000 O   0  0  0  0  0  0  0  0  0  0  0  0
    0.3943   -1.2135    0.0000 C   0  0  0  0  0  0  0  0  0  0  0  0
    0.8578   -2.6401    0.0000 O   0  0  0  0  0  0  0  0  0  0  0  0
  1  2  1  0
  2  3  2  0
  3  4  1  0
  3  5  1  0
  5  6  2  0
  5  7  1  0
  7  8  2  0
  7  9  1  0
  9 10  2  0
  9  2  1  0
M  END
>  <Name>  (65) 
4,5-Dihydroxycyclopent-4-ene-1,2,3-trione

>  <logK_La_z=3.0_T=25_I=0.1>  (65) 
3.05

$$$$

     RDKit          2D

 13 14  0  0  0  0  0  0  0  0999 V2000
   -1.5000   -5.1962    0.0000 O   0  0  0  0  0  0  0  0  0  0  0  0
   -0.7500   -3.8971    0.0000 C   0  0  0  0  0  0  0  0  0  0  0  0
    0.7500   -3.8971    0.0000 C   0  0  0  0  0  0  0  0  0  0  0  0
    1.5000   -2.5981    0.0000 C   0  0  0  0  0  0  0  0  0  0  0  0
    0.7500   -1.2990    0.0000 C   0  0  0  0  0  0  0  0  0  0  0  0
    1.5000    0.0000    0.0000 C   0  0  0  0  0  0  0  0  0  0  0  0
    0.7500    1.2990    0.0000 C   0  0  0  0  0  0  0  0  0  0  0  0
   -0.7500    1.2990    0.0000 C   0  0  0  0  0  0  0  0  0  0  0  0
   -1.5000    0.0000    0.0000 C   0  0  0  0  0  0  0  0  0  0  0  0
   -0.7500   -1.2990    0.0000 C   0  0  0  0  0  0  0  0  0  0  0  0
   -1.5000   -2.5981    0.0000 C   0  0  0  0  0  0  0  0  0  0  0  0
   -3.0000   -2.5981    0.0000 N   0  0  0  0  0  0  0  0  0  0  0  0
   -3.7500   -3.8971    0.0000 O   0  0  0  0  0  0  0  0  0  0  0  0
  1  2  1  0
  2  3  2  0
  3  4  1  0
  4  5  2  0
  5  6  1  0
  6  7  2  0
  7  8  1  0
  8  9  2  0
  9 10  1  0
 10 11  2  0
 11 12  1  0
 12 13  2  0
 11  2  1  0
 10  5  1  0
M  END
>  <Name>  (66) 
1-Nitroso-2-naphthol

>  <logK_La_z=3.0_T=25_I=0.1>  (66) 
3.89

$$$$

     RDKit          2D

 11 10  0  0  0  0  0  0  0  0999 V2000
   -1.2990    0.7500    0.0000 O   0  0  0  0  0  0  0  0  0  0  0  0
    0.0000    0.0000    0.0000 C   0  0  0  0  0  0  0  0  0  0  0  0
    1.2990    0.7500    0.0000 C   0  0  0  0  0  0  0  0  0  0  0  0
    2.5981   -0.0000    0.0000 N   0  0  0  0  0  0  0  0  0  0  0  0
    3.8971    0.7500    0.0000 C   0  0  0  0  0  0  0  0  0  0  0  0
    5.1962   -0.0000    0.0000 C   0  0  0  0  0  0  0  0  0  0  0  0
    6.4952    0.7500    0.0000 O   0  0  0  0  0  0  0  0  0  0  0  0
    2.5981   -1.5000    0.0000 C   0  0  0  0  0  0  0  0  0  0  0  0
    3.8971   -2.2500    0.0000 C   0  0  0  0  0  0  0  0  0  0  0  0
    3.8971   -3.7500    0.0000 O   0  0  0  0  0  0  0  0  0  0  0  0
    5.1962   -1.5000    0.0000 O   0  0  0  0  0  0  0  0  0  0  0  0
  1  2  1  0
  2  3  1  0
  3  4  1  0
  4  5  1  0
  5  6  1  0
  6  7  1  0
  4  8  1  0
  8  9  1  0
  9 10  1  0
  9 11  2  0
M  END
>  <Name>  (67) 
N,N-Bis(2-hydroxyethyl)glycine

>  <logK_La_z=3.0_T=25_I=0.1>  (67) 
5.0

>  <logK_La_z=3.0_T=20_I=0.1>  (67) 
4.99

$$$$

     RDKit          2D

 15 15  0  0  0  0  0  0  0  0999 V2000
    3.0000    0.0000    0.0000 O   0  0  0  0  0  0  0  0  0  0  0  0
    1.5000    0.0000    0.0000 C   0  0  0  0  0  0  0  0  0  0  0  0
    0.7500   -1.2990    0.0000 C   0  0  0  0  0  0  0  0  0  0  0  0
    1.5000   -2.5981    0.0000 C   0  0  0  0  0  0  0  0  0  0  0  0
    0.7500   -3.8971    0.0000 O   0  0  0  0  0  0  0  0  0  0  0  0
   -0.7500   -1.2990    0.0000 C   0  0  0  0  0  0  0  0  0  0  0  0
   -1.5000    0.0000    0.0000 C   0  0  0  0  0  0  0  0  0  0  0  0
   -0.7500    1.2990    0.0000 C   0  0  0  0  0  0  0  0  0  0  0  0
    0.7500    1.2990    0.0000 C   0  0  0  0  0  0  0  0  0  0  0  0
    1.5000    2.5981    0.0000 N   0  0  0  0  0  4  0  0  0  0  0  0
    3.0000    2.5981    0.0000 O   0  0  0  0  0  1  0  0  0  0  0  0
    0.7500    3.8971    0.0000 O   0  0  0  0  0  0  0  0  0  0  0  0
   -3.0000    0.0000    0.0000 N   0  0  0  0  0  4  0  0  0  0  0  0
   -3.7500    1.2990    0.0000 O   0  0  0  0  0  1  0  0  0  0  0  0
   -3.7500   -1.2990    0.0000 O   0  0  0  0  0  0  0  0  0  0  0  0
  1  2  1  0
  2  3  2  0
  3  4  1  0
  4  5  2  0
  3  6  1  0
  6  7  2  0
  7  8  1  0
  8  9  2  0
  9 10  1  0
 10 11  1  0
 10 12  2  0
  7 13  1  0
 13 14  1  0
 13 15  2  0
  9  2  1  0
M  CHG  4  10   1  11  -1  13   1  14  -1
M  END
>  <Name>  (68) 
3,5-Dinitrosalicylaldehyde

>  <logK_La_z=3.0_T=25_I=0.1>  (68) 
1.84

$$$$

     RDKit          2D

 12 13  0  0  0  0  0  0  0  0999 V2000
    1.5000    0.0000    0.0000 C   0  0  0  0  0  0  0  0  0  0  0  0
    0.7500   -1.2990    0.0000 C   0  0  0  0  0  0  0  0  0  0  0  0
   -0.7500   -1.2990    0.0000 C   0  0  0  0  0  0  0  0  0  0  0  0
   -1.5000    0.0000    0.0000 C   0  0  0  0  0  0  0  0  0  0  0  0
   -0.7500    1.2990    0.0000 N   0  0  0  0  0  0  0  0  0  0  0  0
    0.7500    1.2990    0.0000 C   0  0  0  0  0  0  0  0  0  0  0  0
   -3.0000    0.0000    0.0000 C   0  0  0  0  0  0  0  0  0  0  0  0
   -3.7500    1.2990    0.0000 C   0  0  0  0  0  0  0  0  0  0  0  0
   -5.2500    1.2990    0.0000 C   0  0  0  0  0  0  0  0  0  0  0  0
   -6.0000    0.0000    0.0000 C   0  0  0  0  0  0  0  0  0  0  0  0
   -5.2500   -1.2990    0.0000 C   0  0  0  0  0  0  0  0  0  0  0  0
   -3.7500   -1.2990    0.0000 N   0  0  0  0  0  0  0  0  0  0  0  0
  1  2  2  0
  2  3  1  0
  3  4  2  0
  4  5  1  0
  5  6  2  0
  4  7  1  0
  7  8  2  0
  8  9  1  0
  9 10  2  0
 10 11  1  0
 11 12  2  0
  6  1  1  0
 12  7  1  0
M  END
>  <Name>  (69) 
2,2'-Bipyridine

>  <logK_La_z=3.0_T=25_I=0.1>  (69) 
3.43

$$$$

     RDKit          2D

 12 12  0  0  0  0  0  0  0  0999 V2000
    6.7500   -1.2990    0.0000 O   0  0  0  0  0  0  0  0  0  0  0  0
    5.2500   -1.2990    0.0000 S   0  0  0  0  0  6  0  0  0  0  0  0
    5.2500   -2.7990    0.0000 O   0  0  0  0  0  0  0  0  0  0  0  0
    5.2500    0.2010    0.0000 O   0  0  0  0  0  0  0  0  0  0  0  0
    3.7500   -1.2990    0.0000 C   0  0  0  0  0  0  0  0  0  0  0  0
    3.0000    0.0000    0.0000 C   0  0  0  0  0  0  0  0  0  0  0  0
    1.5000    0.0000    0.0000 N   0  0  0  0  0  0  0  0  0  0  0  0
    0.7500   -1.2990    0.0000 C   0  0  0  0  0  0  0  0  0  0  0  0
   -0.7500   -1.2990    0.0000 C   0  0  0  0  0  0  0  0  0  0  0  0
   -1.5000    0.0000    0.0000 O   0  0  0  0  0  0  0  0  0  0  0  0
   -0.7500    1.2990    0.0000 C   0  0  0  0  0  0  0  0  0  0  0  0
    0.7500    1.2990    0.0000 C   0  0  0  0  0  0  0  0  0  0  0  0
  1  2  1  0
  2  3  2  0
  2  4  2  0
  2  5  1  0
  5  6  1  0
  6  7  1  0
  7  8  1  0
  8  9  1  0
  9 10  1  0
 10 11  1  0
 11 12  1  0
 12  7  1  0
M  END
>  <Name>  (70) 
4-Morpholineethanesulfonic acid

>  <logK_La_z=3.0_T=25_I=0.1>  (70) 
3.4

$$$$

     RDKit          2D

  8  7  0  0  0  0  0  0  0  0999 V2000
   -2.2500   -1.2990    0.0000 O   0  0  0  0  0  0  0  0  0  0  0  0
   -0.7500   -1.2990    0.0000 C   0  0  0  0  0  0  0  0  0  0  0  0
    0.0000   -2.5981    0.0000 O   0  0  0  0  0  0  0  0  0  0  0  0
    0.0000    0.0000    0.0000 C   0  0  0  0  0  0  0  0  0  0  0  0
    1.5000    0.0000    0.0000 C   0  0  0  0  0  0  0  0  0  0  0  0
    2.2500   -1.2990    0.0000 C   0  0  0  0  0  0  0  0  0  0  0  0
    3.7500   -1.2990    0.0000 O   0  0  0  0  0  0  0  0  0  0  0  0
    1.5000   -2.5981    0.0000 O   0  0  0  0  0  0  0  0  0  0  0  0
  1  2  1  0
  2  3  2  0
  2  4  1  0
  4  5  2  0
  5  6  1  0
  6  7  1  0
  6  8  2  0
M  END
>  <Name>  (71) 
cis-Butenedioic acid

>  <logK_La_z=3.0_T=25_I=0.1>  (71) 
4.323333333333333

>  <logK_La_z=3.0_T=25_I=1.0>  (71) 
2.64

>  <logK_La_z=3.0_T=25_I=0.0>  (71) 
4.55

$$$$

     RDKit          2D

  9  8  0  0  0  0  0  0  0  0999 V2000
    0.0000    0.0000    0.0000 C   0  0  0  0  0  0  0  0  0  0  0  0
    1.2990    0.7500    0.0000 C   0  0  0  0  0  0  0  0  0  0  0  0
    2.5981   -0.0000    0.0000 C   0  0  0  0  0  0  0  0  0  0  0  0
    3.8971    0.7500    0.0000 C   0  0  0  0  0  0  0  0  0  0  0  0
    2.5981   -1.5000    0.0000 C   0  0  0  0  0  0  0  0  0  0  0  0
    1.2990   -2.2500    0.0000 N   0  0  0  0  0  0  0  0  0  0  0  0
    3.8971   -2.2500    0.0000 C   0  0  0  0  0  0  0  0  0  0  0  0
    3.8971   -3.7500    0.0000 O   0  0  0  0  0  0  0  0  0  0  0  0
    5.1962   -1.5000    0.0000 O   0  0  0  0  0  0  0  0  0  0  0  0
  1  2  1  0
  2  3  1  0
  3  4  1  0
  3  5  1  0
  5  6  1  0
  5  7  1  0
  7  8  1  0
  7  9  2  0
M  END
>  <Name>  (72) 
2-Amino-3-methylpentanoic acid

>  <logK_La_z=3.0_T=25_I=0.1>  (72) 
5.27

$$$$

     RDKit          2D

 10  9  0  0  0  0  0  0  0  0999 V2000
   -0.0000   -1.5000    0.0000 O   0  0  0  0  0  0  0  0  0  0  0  0
    0.0000    0.0000    0.0000 C   0  0  0  0  0  0  0  0  0  0  0  0
    1.2990    0.7500    0.0000 C   0  0  0  0  0  0  0  0  0  0  0  0
    1.2990    2.2500    0.0000 O   0  0  0  0  0  0  0  0  0  0  0  0
    2.5981   -0.0000    0.0000 C   0  0  0  0  0  0  0  0  0  0  0  0
    3.8971    0.7500    0.0000 O   0  0  0  0  0  0  0  0  0  0  0  0
    2.5981   -1.5000    0.0000 O   0  0  0  0  0  0  0  0  0  0  0  0
   -1.2990    0.7500    0.0000 C   0  0  0  0  0  0  0  0  0  0  0  0
   -2.5981    0.0000    0.0000 O   0  0  0  0  0  0  0  0  0  0  0  0
   -1.2990    2.2500    0.0000 O   0  0  0  0  0  0  0  0  0  0  0  0
  2  1  1  1
  2  3  1  0
  3  4  1  1
  3  5  1  0
  5  6  1  0
  5  7  2  0
  2  8  1  0
  8  9  1  0
  8 10  2  0
M  END
>  <Name>  (73) 
L-Tartaric acid

>  <logK_La_z=3.0_T=25_I=0.1>  (73) 
3.695

>  <logK_La_z=3.0_T=25_I=0.5>  (73) 
2.95

>  <logK_La_z=3.0_T=25_I=1.0>  (73) 
2.72

>  <logK_La_z=3.0_T=25_I=0.0>  (73) 
4.61

$$$$

     RDKit          2D

  8  8  0  0  0  0  0  0  0  0999 V2000
    3.5260   -1.2990    0.0000 O   0  0  0  0  0  0  0  0  0  0  0  0
    2.7760    0.0000    0.0000 C   0  0  0  0  0  0  0  0  0  0  0  0
    3.5260    1.2990    0.0000 O   0  0  0  0  0  0  0  0  0  0  0  0
    1.2760    0.0000    0.0000 C   0  0  0  0  0  0  0  0  0  0  0  0
    0.3943    1.2135    0.0000 O   0  0  0  0  0  0  0  0  0  0  0  0
   -1.0323    0.7500    0.0000 C   0  0  0  0  0  0  0  0  0  0  0  0
   -1.0323   -0.7500    0.0000 C   0  0  0  0  0  0  0  0  0  0  0  0
    0.3943   -1.2135    0.0000 C   0  0  0  0  0  0  0  0  0  0  0  0
  1  2  1  0
  2  3  2  0
  2  4  1  0
  4  5  1  0
  5  6  1  0
  6  7  2  0
  7  8  1  0
  8  4  2  0
M  END
>  <Name>  (74) 
Furan-2-carboxylic acid

>  <logK_La_z=3.0_T=25_I=0.1>  (74) 
1.79

>  <logK_La_z=3.0_T=25_I=2.0>  (74) 
1.48

$$$$

     RDKit          2D

  9  8  0  0  0  0  0  0  0  0999 V2000
   -0.7500    1.2990    0.0000 C   0  0  0  0  0  0  0  0  0  0  0  0
    0.0000    0.0000    0.0000 C   0  0  0  0  0  0  0  0  0  0  0  0
    1.5000    0.0000    0.0000 C   0  0  0  0  0  0  0  0  0  0  0  0
    2.2500   -1.2990    0.0000 C   0  0  0  0  0  0  0  0  0  0  0  0
    3.7500   -1.2990    0.0000 O   0  0  0  0  0  0  0  0  0  0  0  0
    1.5000   -2.5981    0.0000 O   0  0  0  0  0  0  0  0  0  0  0  0
   -0.7500   -1.2990    0.0000 C   0  0  0  0  0  0  0  0  0  0  0  0
   -2.2500   -1.2990    0.0000 O   0  0  0  0  0  0  0  0  0  0  0  0
    0.0000   -2.5981    0.0000 O   0  0  0  0  0  0  0  0  0  0  0  0
  1  2  1  0
  2  3  2  0
  3  4  1  0
  4  5  1  0
  4  6  2  0
  2  7  1  0
  7  8  1  0
  7  9  2  0
M  END
>  <Name>  (75) 
Citraconic acid

>  <logK_La_z=3.0_T=25_I=0.1>  (75) 
4.85

$$$$

     RDKit          2D

 11 11  0  0  0  0  0  0  0  0999 V2000
    3.7500   -1.2990    0.0000 C   0  0  0  0  0  0  0  0  0  0  0  0
    3.0000    0.0000    0.0000 O   0  0  0  0  0  0  0  0  0  0  0  0
    1.5000    0.0000    0.0000 C   0  0  0  0  0  0  0  0  0  0  0  0
    0.7500   -1.2990    0.0000 C   0  0  0  0  0  0  0  0  0  0  0  0
   -0.7500   -1.2990    0.0000 C   0  0  0  0  0  0  0  0  0  0  0  0
   -1.5000    0.0000    0.0000 C   0  0  0  0  0  0  0  0  0  0  0  0
   -0.7500    1.2990    0.0000 C   0  0  0  0  0  0  0  0  0  0  0  0
   -1.5000    2.5981    0.0000 C   0  0  0  0  0  0  0  0  0  0  0  0
   -0.7500    3.8971    0.0000 O   0  0  0  0  0  0  0  0  0  0  0  0
    0.7500    1.2990    0.0000 C   0  0  0  0  0  0  0  0  0  0  0  0
    1.5000    2.5981    0.0000 O   0  0  0  0  0  0  0  0  0  0  0  0
  1  2  1  0
  2  3  1  0
  3  4  2  0
  4  5  1  0
  5  6  2  0
  6  7  1  0
  7  8  1  0
  8  9  2  0
  7 10  2  0
 10 11  1  0
 10  3  1  0
M  END
>  <Name>  (76) 
3-Methoxysalicylaldehyde

>  <logK_La_z=3.0_T=25_I=0.1>  (76) 
4.27

$$$$

     RDKit          2D

 22 23  0  0  0  0  0  0  0  0999 V2000
   -3.0000   -5.1962    0.0000 O   0  0  0  0  0  0  0  0  0  0  0  0
   -1.5000   -5.1962    0.0000 C   0  0  0  0  0  0  0  0  0  0  0  0
   -0.7500   -6.4952    0.0000 O   0  0  0  0  0  0  0  0  0  0  0  0
   -0.7500   -3.8971    0.0000 C   0  0  0  0  0  0  0  0  0  0  0  0
    0.7500   -3.8971    0.0000 C   0  0  0  0  0  0  0  0  0  0  0  0
    1.5000   -2.5981    0.0000 C   0  0  0  0  0  0  0  0  0  0  0  0
    0.7500   -1.2990    0.0000 C   0  0  0  0  0  0  0  0  0  0  0  0
    1.5000    0.0000    0.0000 C   0  0  0  0  0  0  0  0  0  0  0  0
    0.7500    1.2990    0.0000 C   0  0  0  0  0  0  0  0  0  0  0  0
   -0.7500    1.2990    0.0000 C   0  0  0  0  0  0  0  0  0  0  0  0
   -1.5000    0.0000    0.0000 C   0  0  0  0  0  0  0  0  0  0  0  0
   -0.7500   -1.2990    0.0000 C   0  0  0  0  0  0  0  0  0  0  0  0
   -1.5000   -2.5981    0.0000 C   0  0  0  0  0  0  0  0  0  0  0  0
   -3.0000   -2.5981    0.0000 O   0  0  0  0  0  0  0  0  0  0  0  0
   -1.5000    2.5981    0.0000 S   0  0  0  0  0  6  0  0  0  0  0  0
   -2.2500    3.8971    0.0000 O   0  0  0  0  0  0  0  0  0  0  0  0
   -0.2010    3.3481    0.0000 O   0  0  0  0  0  0  0  0  0  0  0  0
   -2.7990    1.8481    0.0000 O   0  0  0  0  0  0  0  0  0  0  0  0
    3.0000   -2.5981    0.0000 S   0  0  0  0  0  6  0  0  0  0  0  0
    4.5000   -2.5981    0.0000 O   0  0  0  0  0  0  0  0  0  0  0  0
    3.0000   -4.0981    0.0000 O   0  0  0  0  0  0  0  0  0  0  0  0
    3.0000   -1.0981    0.0000 O   0  0  0  0  0  0  0  0  0  0  0  0
  1  2  1  0
  2  3  2  0
  2  4  1  0
  4  5  2  0
  5  6  1  0
  6  7  2  0
  7  8  1  0
  8  9  2  0
  9 10  1  0
 10 11  2  0
 11 12  1  0
 12 13  2  0
 13 14  1  0
 10 15  1  0
 15 16  1  0
 15 17  2  0
 15 18  2  0
  6 19  1  0
 19 20  1  0
 19 21  2  0
 19 22  2  0
 13  4  1  0
 12  7  1  0
M  END
>  <Name>  (77) 
1-Hydroxy-4,7-disulfo-2-naphthoic acid

>  <logK_La_z=3.0_T=25_I=0.1>  (77) 
7.08

$$$$

     RDKit          2D

  9  9  0  0  0  0  0  0  0  0999 V2000
    2.7760    0.0000    0.0000 O   0  0  0  0  0  0  0  0  0  0  0  0
    1.2760    0.0000    0.0000 C   0  0  0  0  0  0  0  0  0  0  0  0
    0.3943    1.2135    0.0000 C   0  0  0  0  0  0  0  0  0  0  0  0
   -1.0323    0.7500    0.0000 N   0  0  0  0  0  0  0  0  0  0  0  0
   -1.0323   -0.7500    0.0000 C   0  0  0  0  0  0  0  0  0  0  0  0
    0.3943   -1.2135    0.0000 C   0  0  0  0  0  0  0  0  0  0  0  0
   -2.2458   -1.6317    0.0000 C   0  0  0  0  0  0  0  0  0  0  0  0
   -3.6161   -1.0216    0.0000 O   0  0  0  0  0  0  0  0  0  0  0  0
   -2.0890   -3.1235    0.0000 O   0  0  0  0  0  0  0  0  0  0  0  0
  1  2  1  0
  2  3  1  0
  3  4  1  0
  4  5  1  0
  5  6  1  0
  5  7  1  0
  7  8  1  0
  7  9  2  0
  6  2  1  0
M  END
>  <Name>  (78) 
4-Hydroxy-2-pyrrolidinecarboxylic acid

>  <logK_La_z=3.0_T=25_I=0.1>  (78) 
3.67

$$$$

     RDKit          2D

  9  8  0  0  0  0  0  0  0  0999 V2000
    0.0000    0.0000    0.0000 C   0  0  0  0  0  0  0  0  0  0  0  0
    1.2990    0.7500    0.0000 C   0  0  0  0  0  0  0  0  0  0  0  0
    2.5981   -0.0000    0.0000 C   0  0  0  0  0  0  0  0  0  0  0  0
    3.8971    0.7500    0.0000 C   0  0  0  0  0  0  0  0  0  0  0  0
    5.1962   -0.0000    0.0000 O   0  0  0  0  0  0  0  0  0  0  0  0
    3.8971    2.2500    0.0000 O   0  0  0  0  0  0  0  0  0  0  0  0
    2.5981   -1.5000    0.0000 C   0  0  0  0  0  0  0  0  0  0  0  0
    3.8971   -2.2500    0.0000 O   0  0  0  0  0  0  0  0  0  0  0  0
    1.2990   -2.2500    0.0000 O   0  0  0  0  0  0  0  0  0  0  0  0
  1  2  1  0
  2  3  1  0
  3  4  1  0
  4  5  1  0
  4  6  2  0
  3  7  1  0
  7  8  1  0
  7  9  2  0
M  END
>  <Name>  (79) 
Ethylpropanedioic acid

>  <logK_La_z=3.0_T=25_I=0.1>  (79) 
3.82

$$$$

     RDKit          2D

  9  9  0  0  0  0  0  0  0  0999 V2000
    3.8173    0.5402    0.0000 O   0  0  0  0  0  0  0  0  0  0  0  0
    2.3907    1.0037    0.0000 C   0  0  0  0  0  0  0  0  0  0  0  0
    2.0788    2.4709    0.0000 O   0  0  0  0  0  0  0  0  0  0  0  0
    1.2760    0.0000    0.0000 C   0  0  0  0  0  0  0  0  0  0  0  0
    2.3907   -1.0037    0.0000 O   0  0  0  0  0  0  0  0  0  0  0  0
    0.3943    1.2135    0.0000 C   0  0  0  0  0  0  0  0  0  0  0  0
   -1.0323    0.7500    0.0000 C   0  0  0  0  0  0  0  0  0  0  0  0
   -1.0323   -0.7500    0.0000 C   0  0  0  0  0  0  0  0  0  0  0  0
    0.3943   -1.2135    0.0000 C   0  0  0  0  0  0  0  0  0  0  0  0
  1  2  1  0
  2  3  2  0
  2  4  1  0
  4  5  1  0
  4  6  1  0
  6  7  1  0
  7  8  1  0
  8  9  1  0
  9  4  1  0
M  END
>  <Name>  (80) 
1-Hydroxycyclopentanecarboxylic acid

>  <logK_La_z=3.0_T=25_I=0.1>  (80) 
2.38

$$$$

     RDKit          2D

  5  4  0  0  0  0  0  0  0  0999 V2000
    3.8971    0.7500    0.0000 O   0  0  0  0  0  0  0  0  0  0  0  0
    2.5981   -0.0000    0.0000 C   0  0  0  0  0  0  0  0  0  0  0  0
    2.5981   -1.5000    0.0000 O   0  0  0  0  0  0  0  0  0  0  0  0
    1.2990    0.7500    0.0000 C   0  0  0  0  0  0  0  0  0  0  0  0
    0.0000    0.0000    0.0000 C   0  0  0  0  0  0  0  0  0  0  0  0
  1  2  1  0
  2  3  2  0
  2  4  1  0
  4  5  2  0
M  END
>  <Name>  (81) 
Propenoic acid

>  <logK_La_z=3.0_T=25_I=0.1>  (81) 
1.95

$$$$

     RDKit          2D

 12 11  0  0  0  0  0  0  0  0999 V2000
   -2.5981    0.0000    0.0000 N   0  0  0  0  0  0  0  0  0  0  0  0
   -1.2990    0.7500    0.0000 C   0  0  0  0  0  0  0  0  0  0  0  0
   -1.2990    2.2500    0.0000 O   0  0  0  0  0  0  0  0  0  0  0  0
    0.0000    0.0000    0.0000 C   0  0  0  0  0  0  0  0  0  0  0  0
    1.2990    0.7500    0.0000 C   0  0  0  0  0  0  0  0  0  0  0  0
    2.5981   -0.0000    0.0000 C   0  0  0  0  0  0  0  0  0  0  0  0
    3.8971    0.7500    0.0000 C   0  0  0  0  0  0  0  0  0  0  0  0
    5.1962   -0.0000    0.0000 C   0  0  0  0  0  0  0  0  0  0  0  0
    5.1962   -1.5000    0.0000 O   0  0  0  0  0  0  0  0  0  0  0  0
    6.4952    0.7500    0.0000 N   0  0  0  0  0  0  0  0  0  0  0  0
    7.7942   -0.0000    0.0000 O   0  0  0  0  0  0  0  0  0  0  0  0
    6.4952    2.2500    0.0000 O   0  0  0  0  0  0  0  0  0  0  0  0
  1  2  1  0
  2  3  2  0
  2  4  1  0
  4  5  1  0
  5  6  1  0
  6  7  1  0
  7  8  1  0
  8  9  2  0
  8 10  1  0
 10 11  1  0
 10 12  1  0
M  END
>  <Name>  (82) 
N,N-Dihydroxyhexanediamide

>  <logK_La_z=3.0_T=25_I=0.1>  (82) 
9.01

$$$$

     RDKit          2D

 25 24  0  0  0  0  0  0  0  0999 V2000
    0.0000    0.0000    0.0000 C   0  0  0  0  0  0  0  0  0  0  0  0
    1.2990    0.7500    0.0000 C   0  0  0  0  0  0  0  0  0  0  0  0
    2.5981   -0.0000    0.0000 C   0  0  0  0  0  0  0  0  0  0  0  0
    3.8971    0.7500    0.0000 C   0  0  0  0  0  0  0  0  0  0  0  0
    5.1962   -0.0000    0.0000 C   0  0  0  0  0  0  0  0  0  0  0  0
    6.4952    0.7500    0.0000 C   0  0  0  0  0  0  0  0  0  0  0  0
    7.7942   -0.0000    0.0000 C   0  0  0  0  0  0  0  0  0  0  0  0
    9.0933    0.7500    0.0000 C   0  0  0  0  0  0  0  0  0  0  0  0
   10.3923   -0.0000    0.0000 C   0  0  0  0  0  0  0  0  0  0  0  0
   11.6913    0.7500    0.0000 C   0  0  0  0  0  0  0  0  0  0  0  0
   12.9904   -0.0000    0.0000 O   0  0  0  0  0  0  0  0  0  0  0  0
   14.2894    0.7500    0.0000 P   0  0  0  0  0  5  0  0  0  0  0  0
   15.0394   -0.5490    0.0000 O   0  0  0  0  0  0  0  0  0  0  0  0
   13.5394    2.0490    0.0000 O   0  0  0  0  0  0  0  0  0  0  0  0
   15.5885    1.5000    0.0000 O   0  0  0  0  0  0  0  0  0  0  0  0
   15.5885    3.0000    0.0000 C   0  0  0  0  0  0  0  0  0  0  0  0
   16.8875    3.7500    0.0000 C   0  0  0  0  0  0  0  0  0  0  0  0
   16.8875    5.2500    0.0000 C   0  0  0  0  0  0  0  0  0  0  0  0
   18.1865    6.0000    0.0000 C   0  0  0  0  0  0  0  0  0  0  0  0
   18.1865    7.5000    0.0000 C   0  0  0  0  0  0  0  0  0  0  0  0
   19.4856    8.2500    0.0000 C   0  0  0  0  0  0  0  0  0  0  0  0
   19.4856    9.7500    0.0000 C   0  0  0  0  0  0  0  0  0  0  0  0
   20.7846   10.5000    0.0000 C   0  0  0  0  0  0  0  0  0  0  0  0
   20.7846   12.0000    0.0000 C   0  0  0  0  0  0  0  0  0  0  0  0
   22.0836   12.7500    0.0000 C   0  0  0  0  0  0  0  0  0  0  0  0
  1  2  1  0
  2  3  1  0
  3  4  1  0
  4  5  1  0
  5  6  1  0
  6  7  1  0
  7  8  1  0
  8  9  1  0
  9 10  1  0
 10 11  1  0
 11 12  1  0
 12 13  1  0
 12 14  2  0
 12 15  1  0
 15 16  1  0
 16 17  1  0
 17 18  1  0
 18 19  1  0
 19 20  1  0
 20 21  1  0
 21 22  1  0
 22 23  1  0
 23 24  1  0
 24 25  1  0
M  END
>  <Name>  (83) 
Didecylphosphoric acid

>  <logK_La_z=3.0_T=25_I=0.1>  (83) 
3.19

$$$$

     RDKit          2D

 12 12  0  0  0  0  0  0  0  0999 V2000
    3.7500   -1.2990    0.0000 O   0  0  0  0  0  0  0  0  0  0  0  0
    3.0000    0.0000    0.0000 C   0  0  0  0  0  0  0  0  0  0  0  0
    3.7500    1.2990    0.0000 O   0  0  0  0  0  0  0  0  0  0  0  0
    1.5000    0.0000    0.0000 C   0  0  0  0  0  0  0  0  0  0  0  0
    0.7500   -1.2990    0.0000 C   0  0  0  0  0  0  0  0  0  0  0  0
   -0.7500   -1.2990    0.0000 C   0  0  0  0  0  0  0  0  0  0  0  0
   -1.5000    0.0000    0.0000 C   0  0  0  0  0  0  0  0  0  0  0  0
   -0.7500    1.2990    0.0000 C   0  0  0  0  0  0  0  0  0  0  0  0
    0.7500    1.2990    0.0000 C   0  0  0  0  0  0  0  0  0  0  0  0
   -3.0000    0.0000    0.0000 C   0  0  0  0  0  0  0  0  0  0  0  0
   -3.7500    1.2990    0.0000 O   0  0  0  0  0  0  0  0  0  0  0  0
   -3.7500   -1.2990    0.0000 O   0  0  0  0  0  0  0  0  0  0  0  0
  1  2  1  0
  2  3  2  0
  2  4  1  0
  4  5  1  0
  5  6  1  0
  6  7  1  0
  7  8  1  0
  8  9  1  0
  7 10  1  0
 10 11  1  0
 10 12  2  0
  9  4  1  0
M  END
>  <Name>  (84) 
Cyclohexane-1,4-dicarboxylic acid

>  <logK_La_z=3.0_T=25_I=0.1>  (84) 
4.34

$$$$

     RDKit          2D

 10  9  0  0  0  0  0  0  0  0999 V2000
   -2.5981    0.0000    0.0000 O   0  0  0  0  0  0  0  0  0  0  0  0
   -1.2990    0.7500    0.0000 C   0  0  0  0  0  0  0  0  0  0  0  0
   -1.2990    2.2500    0.0000 O   0  0  0  0  0  0  0  0  0  0  0  0
    0.0000    0.0000    0.0000 C   0  0  0  0  0  0  0  0  0  0  0  0
    1.2990    0.7500    0.0000 C   0  0  0  0  0  0  0  0  0  0  0  0
    2.5981   -0.0000    0.0000 C   0  0  0  0  0  0  0  0  0  0  0  0
    3.8971    0.7500    0.0000 C   0  0  0  0  0  0  0  0  0  0  0  0
    5.1962   -0.0000    0.0000 C   0  0  0  0  0  0  0  0  0  0  0  0
    6.4952    0.7500    0.0000 O   0  0  0  0  0  0  0  0  0  0  0  0
    5.1962   -1.5000    0.0000 O   0  0  0  0  0  0  0  0  0  0  0  0
  1  2  1  0
  2  3  2  0
  2  4  1  0
  4  5  1  0
  5  6  1  0
  6  7  1  0
  7  8  1  0
  8  9  1  0
  8 10  2  0
M  END
>  <Name>  (85) 
1,6-Hexanedioic acid

>  <logK_La_z=3.0_T=25_I=0.1>  (85) 
2.9500000000000006

$$$$

     RDKit          2D

  8  7  0  0  0  0  0  0  0  0999 V2000
    0.0000    0.0000    0.0000 C   0  0  0  0  0  0  0  0  0  0  0  0
    1.2990    0.7500    0.0000 C   0  0  0  0  0  0  0  0  0  0  0  0
    1.2990    2.2500    0.0000 O   0  0  0  0  0  0  0  0  0  0  0  0
    2.5981   -0.0000    0.0000 C   0  0  0  0  0  0  0  0  0  0  0  0
    2.5981   -1.5000    0.0000 N   0  0  0  0  0  0  0  0  0  0  0  0
    3.8971    0.7500    0.0000 C   0  0  0  0  0  0  0  0  0  0  0  0
    5.1962   -0.0000    0.0000 O   0  0  0  0  0  0  0  0  0  0  0  0
    3.8971    2.2500    0.0000 O   0  0  0  0  0  0  0  0  0  0  0  0
  1  2  1  0
  2  3  1  0
  2  4  1  0
  4  5  1  0
  4  6  1  0
  6  7  1  0
  6  8  2  0
M  END
>  <Name>  (86) 
2-Amino-3-hydroxybutanoic acid

>  <logK_La_z=3.0_T=25_I=0.1>  (86) 
4.98

$$$$

     RDKit          2D

  6  5  0  0  0  0  0  0  0  0999 V2000
   -1.2990    0.7500    0.0000 O   0  0  0  0  0  0  0  0  0  0  0  0
    0.0000    0.0000    0.0000 C   0  0  0  0  0  0  0  0  0  0  0  0
   -0.0000   -1.5000    0.0000 O   0  0  0  0  0  0  0  0  0  0  0  0
    1.2990    0.7500    0.0000 C   0  0  0  0  0  0  0  0  0  0  0  0
    2.5981   -0.0000    0.0000 O   0  0  0  0  0  0  0  0  0  0  0  0
    1.2990    2.2500    0.0000 O   0  0  0  0  0  0  0  0  0  0  0  0
  1  2  1  0
  2  3  2  0
  2  4  1  0
  4  5  1  0
  4  6  2  0
M  END
>  <Name>  (87) 
Ethanedioic acid

>  <logK_La_z=3.0_T=25_I=0.1>  (87) 
4.71

>  <logK_La_z=3.0_T=25_I=1.0>  (87) 
4.3

$$$$

     RDKit          2D

  9  8  0  0  0  0  0  0  0  0999 V2000
    2.5981   -0.0000    0.0000 O   0  0  0  0  0  0  0  0  0  0  0  0
    1.2990    0.7500    0.0000 C   0  0  0  0  0  0  0  0  0  0  0  0
    1.2990    2.2500    0.0000 O   0  0  0  0  0  0  0  0  0  0  0  0
    0.0000    0.0000    0.0000 C   0  0  0  0  0  0  0  0  0  0  0  0
   -1.2990    0.7500    0.0000 N   0  0  0  0  0  0  0  0  0  0  0  0
   -2.5981    0.0000    0.0000 C   0  0  0  0  0  0  0  0  0  0  0  0
   -3.8971    0.7500    0.0000 C   0  0  0  0  0  0  0  0  0  0  0  0
   -5.1962    0.0000    0.0000 O   0  0  0  0  0  0  0  0  0  0  0  0
   -3.8971    2.2500    0.0000 O   0  0  0  0  0  0  0  0  0  0  0  0
  1  2  1  0
  2  3  2  0
  2  4  1  0
  4  5  1  0
  5  6  1  0
  6  7  1  0
  7  8  1  0
  7  9  2  0
M  END
>  <Name>  (88) 
Iminodiethanoic acid

>  <logK_La_z=3.0_T=25_I=0.1>  (88) 
5.88

$$$$

     RDKit          2D

  7  6  0  0  0  0  0  0  0  0999 V2000
    2.5981   -0.0000    0.0000 O   0  0  0  0  0  0  0  0  0  0  0  0
    1.2990    0.7500    0.0000 C   0  0  0  0  0  0  0  0  0  0  0  0
    1.2990    2.2500    0.0000 O   0  0  0  0  0  0  0  0  0  0  0  0
    0.0000    0.0000    0.0000 C   0  0  0  0  0  0  0  0  0  0  0  0
   -1.2990    0.7500    0.0000 C   0  0  0  0  0  0  0  0  0  0  0  0
   -2.5981    0.0000    0.0000 O   0  0  0  0  0  0  0  0  0  0  0  0
   -1.2990    2.2500    0.0000 O   0  0  0  0  0  0  0  0  0  0  0  0
  1  2  1  0
  2  3  2  0
  2  4  1  0
  4  5  1  0
  5  6  1  0
  5  7  2  0
M  END
>  <Name>  (89) 
Propanedioic acid

>  <logK_La_z=3.0_T=25_I=0.1>  (89) 
3.765

>  <logK_La_z=3.0_T=25_I=1.0>  (89) 
3.06

>  <logK_La_z=3.0_T=25_I=0.0>  (89) 
4.94

$$$$

     RDKit          2D

 18 19  0  0  0  0  0  0  0  0999 V2000
   -3.0000   -5.1962    0.0000 O   0  0  0  0  0  0  0  0  0  0  0  0
   -1.5000   -5.1962    0.0000 C   0  0  0  0  0  0  0  0  0  0  0  0
   -0.7500   -6.4952    0.0000 O   0  0  0  0  0  0  0  0  0  0  0  0
   -0.7500   -3.8971    0.0000 C   0  0  0  0  0  0  0  0  0  0  0  0
    0.7500   -3.8971    0.0000 C   0  0  0  0  0  0  0  0  0  0  0  0
    1.5000   -2.5981    0.0000 C   0  0  0  0  0  0  0  0  0  0  0  0
    0.7500   -1.2990    0.0000 C   0  0  0  0  0  0  0  0  0  0  0  0
    1.5000    0.0000    0.0000 C   0  0  0  0  0  0  0  0  0  0  0  0
    0.7500    1.2990    0.0000 C   0  0  0  0  0  0  0  0  0  0  0  0
   -0.7500    1.2990    0.0000 C   0  0  0  0  0  0  0  0  0  0  0  0
   -1.5000    0.0000    0.0000 C   0  0  0  0  0  0  0  0  0  0  0  0
   -0.7500   -1.2990    0.0000 C   0  0  0  0  0  0  0  0  0  0  0  0
   -1.5000   -2.5981    0.0000 C   0  0  0  0  0  0  0  0  0  0  0  0
   -3.0000   -2.5981    0.0000 O   0  0  0  0  0  0  0  0  0  0  0  0
    3.0000   -2.5981    0.0000 S   0  0  0  0  0  6  0  0  0  0  0  0
    4.5000   -2.5981    0.0000 O   0  0  0  0  0  0  0  0  0  0  0  0
    3.0000   -4.0981    0.0000 O   0  0  0  0  0  0  0  0  0  0  0  0
    3.0000   -1.0981    0.0000 O   0  0  0  0  0  0  0  0  0  0  0  0
  1  2  1  0
  2  3  2  0
  2  4  1  0
  4  5  2  0
  5  6  1  0
  6  7  2  0
  7  8  1  0
  8  9  2  0
  9 10  1  0
 10 11  2  0
 11 12  1  0
 12 13  2  0
 13 14  1  0
  6 15  1  0
 15 16  1  0
 15 17  2  0
 15 18  2  0
 13  4  1  0
 12  7  1  0
M  END
>  <Name>  (90) 
1-Hydroxy-4-sulfo-2-naphthoic acid

>  <logK_La_z=3.0_T=25_I=0.1>  (90) 
7.08

$$$$

     RDKit          2D

 21 20  0  0  0  0  0  0  0  0999 V2000
    0.0000    0.0000    0.0000 C   0  0  0  0  0  0  0  0  0  0  0  0
    1.2990    0.7500    0.0000 C   0  0  0  0  0  0  0  0  0  0  0  0
    2.5981   -0.0000    0.0000 C   0  0  0  0  0  0  0  0  0  0  0  0
    3.8971    0.7500    0.0000 C   0  0  0  0  0  0  0  0  0  0  0  0
    5.1962   -0.0000    0.0000 C   0  0  0  0  0  0  0  0  0  0  0  0
    6.4952    0.7500    0.0000 C   0  0  0  0  0  0  0  0  0  0  0  0
    7.7942   -0.0000    0.0000 C   0  0  0  0  0  0  0  0  0  0  0  0
    9.0933    0.7500    0.0000 C   0  0  0  0  0  0  0  0  0  0  0  0
   10.3923   -0.0000    0.0000 O   0  0  0  0  0  0  0  0  0  0  0  0
   11.6913    0.7500    0.0000 P   0  0  0  0  0  5  0  0  0  0  0  0
   12.4413   -0.5490    0.0000 O   0  0  0  0  0  0  0  0  0  0  0  0
   10.9413    2.0490    0.0000 O   0  0  0  0  0  0  0  0  0  0  0  0
   12.9904    1.5000    0.0000 O   0  0  0  0  0  0  0  0  0  0  0  0
   12.9904    3.0000    0.0000 C   0  0  0  0  0  0  0  0  0  0  0  0
   14.2894    3.7500    0.0000 C   0  0  0  0  0  0  0  0  0  0  0  0
   14.2894    5.2500    0.0000 C   0  0  0  0  0  0  0  0  0  0  0  0
   15.5885    6.0000    0.0000 C   0  0  0  0  0  0  0  0  0  0  0  0
   15.5885    7.5000    0.0000 C   0  0  0  0  0  0  0  0  0  0  0  0
   16.8875    8.2500    0.0000 C   0  0  0  0  0  0  0  0  0  0  0  0
   16.8875    9.7500    0.0000 C   0  0  0  0  0  0  0  0  0  0  0  0
   18.1865   10.5000    0.0000 C   0  0  0  0  0  0  0  0  0  0  0  0
  1  2  1  0
  2  3  1  0
  3  4  1  0
  4  5  1  0
  5  6  1  0
  6  7  1  0
  7  8  1  0
  8  9  1  0
  9 10  1  0
 10 11  1  0
 10 12  2  0
 10 13  1  0
 13 14  1  0
 14 15  1  0
 15 16  1  0
 16 17  1  0
 17 18  1  0
 18 19  1  0
 19 20  1  0
 20 21  1  0
M  END
>  <Name>  (91) 
Dioctylphosphoric acid

>  <logK_La_z=3.0_T=25_I=0.1>  (91) 
3.99

$$$$

     RDKit          2D

 16 17  0  0  0  0  0  0  0  0999 V2000
   -3.0000   -2.5981    0.0000 O   0  0  0  0  0  0  0  0  0  0  0  0
   -1.5000   -2.5981    0.0000 C   0  0  0  0  0  0  0  0  0  0  0  0
   -0.7500   -3.8971    0.0000 C   0  0  0  0  0  0  0  0  0  0  0  0
   -1.5000   -5.1962    0.0000 Br  0  0  0  0  0  0  0  0  0  0  0  0
    0.7500   -3.8971    0.0000 C   0  0  0  0  0  0  0  0  0  0  0  0
    1.5000   -2.5981    0.0000 C   0  0  0  0  0  0  0  0  0  0  0  0
    0.7500   -1.2990    0.0000 C   0  0  0  0  0  0  0  0  0  0  0  0
    1.5000    0.0000    0.0000 C   0  0  0  0  0  0  0  0  0  0  0  0
    0.7500    1.2990    0.0000 C   0  0  0  0  0  0  0  0  0  0  0  0
   -0.7500    1.2990    0.0000 C   0  0  0  0  0  0  0  0  0  0  0  0
   -1.5000    0.0000    0.0000 N   0  0  0  0  0  0  0  0  0  0  0  0
   -0.7500   -1.2990    0.0000 C   0  0  0  0  0  0  0  0  0  0  0  0
    3.0000   -2.5981    0.0000 S   0  0  0  0  0  6  0  0  0  0  0  0
    4.5000   -2.5981    0.0000 O   0  0  0  0  0  0  0  0  0  0  0  0
    3.0000   -4.0981    0.0000 O   0  0  0  0  0  0  0  0  0  0  0  0
    3.0000   -1.0981    0.0000 O   0  0  0  0  0  0  0  0  0  0  0  0
  1  2  1  0
  2  3  2  0
  3  4  1  0
  3  5  1  0
  5  6  2  0
  6  7  1  0
  7  8  2  0
  8  9  1  0
  9 10  2  0
 10 11  1  0
 11 12  2  0
  6 13  1  0
 13 14  1  0
 13 15  2  0
 13 16  2  0
 12  2  1  0
 12  7  1  0
M  END
>  <Name>  (92) 
7-Bromo-8-hydroxyquinoline-5-sulfonic acid

>  <logK_La_z=3.0_T=25_I=0.1>  (92) 
4.68

$$$$

     RDKit          2D

 11 11  0  0  0  0  0  0  0  0999 V2000
    3.7500   -1.2990    0.0000 C   0  0  0  0  0  0  0  0  0  0  0  0
    3.0000    0.0000    0.0000 O   0  0  0  0  0  0  0  0  0  0  0  0
    1.5000    0.0000    0.0000 C   0  0  0  0  0  0  0  0  0  0  0  0
    0.7500   -1.2990    0.0000 C   0  0  0  0  0  0  0  0  0  0  0  0
   -0.7500   -1.2990    0.0000 C   0  0  0  0  0  0  0  0  0  0  0  0
   -1.5000    0.0000    0.0000 C   0  0  0  0  0  0  0  0  0  0  0  0
   -0.7500    1.2990    0.0000 C   0  0  0  0  0  0  0  0  0  0  0  0
    0.7500    1.2990    0.0000 C   0  0  0  0  0  0  0  0  0  0  0  0
   -1.5000    2.5981    0.0000 C   0  0  0  0  0  0  0  0  0  0  0  0
   -0.7500    3.8971    0.0000 O   0  0  0  0  0  0  0  0  0  0  0  0
   -3.0000    2.5981    0.0000 O   0  0  0  0  0  0  0  0  0  0  0  0
  1  2  1  0
  2  3  1  0
  3  4  2  0
  4  5  1  0
  5  6  2  0
  6  7  1  0
  7  8  2  0
  7  9  1  0
  9 10  1  0
  9 11  2  0
  8  3  1  0
M  END
>  <Name>  (93) 
3-Methoxybenzoic acid

>  <logK_La_z=3.0_T=25_I=0.1>  (93) 
1.96

$$$$

     RDKit          2D

  9  8  0  0  0  0  0  0  0  0999 V2000
   -2.5981    0.0000    0.0000 O   0  0  0  0  0  0  0  0  0  0  0  0
   -1.2990    0.7500    0.0000 C   0  0  0  0  0  0  0  0  0  0  0  0
   -1.2990    2.2500    0.0000 O   0  0  0  0  0  0  0  0  0  0  0  0
    0.0000    0.0000    0.0000 C   0  0  0  0  0  0  0  0  0  0  0  0
    1.2990    0.7500    0.0000 C   0  0  0  0  0  0  0  0  0  0  0  0
    2.5981   -0.0000    0.0000 C   0  0  0  0  0  0  0  0  0  0  0  0
    3.8971    0.7500    0.0000 C   0  0  0  0  0  0  0  0  0  0  0  0
    5.1962   -0.0000    0.0000 O   0  0  0  0  0  0  0  0  0  0  0  0
    3.8971    2.2500    0.0000 O   0  0  0  0  0  0  0  0  0  0  0  0
  1  2  1  0
  2  3  2  0
  2  4  1  0
  4  5  1  0
  5  6  1  0
  6  7  1  0
  7  8  1  0
  7  9  2  0
M  END
>  <Name>  (94) 
Pentanedioic acid

>  <logK_La_z=3.0_T=25_I=0.1>  (94) 
2.9933333333333336

>  <logK_La_z=3.0_T=25_I=0.0>  (94) 
3.82

$$$$

     RDKit          2D

 17 18  0  0  0  0  0  0  0  0999 V2000
   -3.0000   -2.5981    0.0000 O   0  0  0  0  0  0  0  0  0  0  0  0
   -1.5000   -2.5981    0.0000 C   0  0  0  0  0  0  0  0  0  0  0  0
   -0.7500   -3.8971    0.0000 C   0  0  0  0  0  0  0  0  0  0  0  0
    0.7500   -3.8971    0.0000 C   0  0  0  0  0  0  0  0  0  0  0  0
    1.5000   -2.5981    0.0000 C   0  0  0  0  0  0  0  0  0  0  0  0
    0.7500   -1.2990    0.0000 C   0  0  0  0  0  0  0  0  0  0  0  0
    1.5000    0.0000    0.0000 C   0  0  0  0  0  0  0  0  0  0  0  0
    0.7500    1.2990    0.0000 C   0  0  0  0  0  0  0  0  0  0  0  0
   -0.7500    1.2990    0.0000 C   0  0  0  0  0  0  0  0  0  0  0  0
   -1.5000    0.0000    0.0000 C   0  0  0  0  0  0  0  0  0  0  0  0
   -0.7500   -1.2990    0.0000 C   0  0  0  0  0  0  0  0  0  0  0  0
    3.0000   -2.5981    0.0000 S   0  0  0  0  0  6  0  0  0  0  0  0
    4.5000   -2.5981    0.0000 O   0  0  0  0  0  0  0  0  0  0  0  0
    3.0000   -4.0981    0.0000 O   0  0  0  0  0  0  0  0  0  0  0  0
    3.0000   -1.0981    0.0000 O   0  0  0  0  0  0  0  0  0  0  0  0
   -1.5000   -5.1962    0.0000 N   0  0  0  0  0  0  0  0  0  0  0  0
   -3.0000   -5.1962    0.0000 O   0  0  0  0  0  0  0  0  0  0  0  0
  1  2  1  0
  2  3  2  0
  3  4  1  0
  4  5  2  0
  5  6  1  0
  6  7  2  0
  7  8  1  0
  8  9  2  0
  9 10  1  0
 10 11  2  0
  5 12  1  0
 12 13  1  0
 12 14  2  0
 12 15  2  0
  3 16  1  0
 16 17  2  0
 11  2  1  0
 11  6  1  0
M  END
>  <Name>  (95) 
2-Nitroso-1-hydroxynaphthalene-4-sulfonic acid

>  <logK_La_z=3.0_T=25_I=0.1>  (95) 
4.206666666666667

>  <logK_La_z=3.0_T=25_I=0.0>  (95) 
4.68

$$$$

     RDKit          2D

 12 11  0  0  0  0  0  0  0  0999 V2000
   -1.2990    0.7500    0.0000 O   0  0  0  0  0  0  0  0  0  0  0  0
    0.0000    0.0000    0.0000 C   0  0  0  0  0  0  0  0  0  0  0  0
    1.2990    0.7500    0.0000 C   0  0  0  0  0  0  0  0  0  0  0  0
    2.5981    1.5000    0.0000 C   0  0  0  0  0  0  0  0  0  0  0  0
    2.5981    3.0000    0.0000 O   0  0  0  0  0  0  0  0  0  0  0  0
    2.0490   -0.5490    0.0000 C   0  0  0  0  0  0  0  0  0  0  0  0
    3.5490   -0.5490    0.0000 O   0  0  0  0  0  0  0  0  0  0  0  0
    0.5490    2.0490    0.0000 N   0  0  0  0  0  0  0  0  0  0  0  0
    1.2990    3.3481    0.0000 C   0  0  0  0  0  0  0  0  0  0  0  0
    0.5490    4.6471    0.0000 C   0  0  0  0  0  0  0  0  0  0  0  0
    1.2990    5.9462    0.0000 O   0  0  0  0  0  0  0  0  0  0  0  0
   -0.9510    4.6471    0.0000 O   0  0  0  0  0  0  0  0  0  0  0  0
  1  2  1  0
  2  3  1  0
  3  4  1  0
  4  5  1  0
  3  6  1  0
  6  7  1  0
  3  8  1  0
  8  9  1  0
  9 10  1  0
 10 11  1  0
 10 12  2  0
M  END
>  <Name>  (96) 
N-(Tris(hydroxymethyl)methyl)glycine

>  <logK_La_z=3.0_T=25_I=0.1>  (96) 
5.02

$$$$

     RDKit          2D

  8  8  0  0  0  0  0  0  0  0999 V2000
    3.5260   -1.2990    0.0000 O   0  0  0  0  0  0  0  0  0  0  0  0
    2.7760    0.0000    0.0000 C   0  0  0  0  0  0  0  0  0  0  0  0
    3.5260    1.2990    0.0000 O   0  0  0  0  0  0  0  0  0  0  0  0
    1.2760    0.0000    0.0000 C   0  0  0  0  0  0  0  0  0  0  0  0
    0.3943    1.2135    0.0000 C   0  0  0  0  0  0  0  0  0  0  0  0
   -1.0323    0.7500    0.0000 C   0  0  0  0  0  0  0  0  0  0  0  0
   -1.0323   -0.7500    0.0000 C   0  0  0  0  0  0  0  0  0  0  0  0
    0.3943   -1.2135    0.0000 N   0  0  0  0  0  0  0  0  0  0  0  0
  1  2  1  0
  2  3  2  0
  2  4  1  0
  4  5  1  0
  5  6  1  0
  6  7  1  0
  7  8  1  0
  8  4  1  0
M  END
>  <Name>  (97) 
Pyrrolidine-2-carboxylic acid

>  <logK_La_z=3.0_T=25_I=0.1>  (97) 
4.32

$$$$

     RDKit          2D

 10 10  0  0  0  0  0  0  0  0999 V2000
    3.0000    0.0000    0.0000 O   0  0  0  0  0  0  0  0  0  0  0  0
    1.5000    0.0000    0.0000 C   0  0  0  0  0  0  0  0  0  0  0  0
    0.7500   -1.2990    0.0000 C   0  0  0  0  0  0  0  0  0  0  0  0
   -0.7500   -1.2990    0.0000 C   0  0  0  0  0  0  0  0  0  0  0  0
   -1.5000    0.0000    0.0000 C   0  0  0  0  0  0  0  0  0  0  0  0
   -0.7500    1.2990    0.0000 C   0  0  0  0  0  0  0  0  0  0  0  0
    0.7500    1.2990    0.0000 C   0  0  0  0  0  0  0  0  0  0  0  0
    1.5000    2.5981    0.0000 N   0  0  0  0  0  4  0  0  0  0  0  0
    3.0000    2.5981    0.0000 O   0  0  0  0  0  1  0  0  0  0  0  0
    0.7500    3.8971    0.0000 O   0  0  0  0  0  0  0  0  0  0  0  0
  1  2  1  0
  2  3  2  0
  3  4  1  0
  4  5  2  0
  5  6  1  0
  6  7  2  0
  7  8  1  0
  8  9  1  0
  8 10  2  0
  7  2  1  0
M  CHG  2   8   1   9  -1
M  END
>  <Name>  (98) 
2-Nitrohydroxybenzene

>  <logK_La_z=3.0_T=25_I=0.1>  (98) 
2.2

$$$$

     RDKit          2D

 10  9  0  0  0  0  0  0  0  0999 V2000
    0.0000    0.0000    0.0000 C   0  0  0  0  0  0  0  0  0  0  0  0
    1.2990    0.7500    0.0000 N   0  0  0  0  0  0  0  0  0  0  0  0
    2.5981   -0.0000    0.0000 C   0  0  0  0  0  0  0  0  0  0  0  0
    3.8971    0.7500    0.0000 C   0  0  0  0  0  0  0  0  0  0  0  0
    5.1962   -0.0000    0.0000 O   0  0  0  0  0  0  0  0  0  0  0  0
    3.8971    2.2500    0.0000 O   0  0  0  0  0  0  0  0  0  0  0  0
    1.2990    2.2500    0.0000 C   0  0  0  0  0  0  0  0  0  0  0  0
    0.0000    3.0000    0.0000 C   0  0  0  0  0  0  0  0  0  0  0  0
   -0.0000    4.5000    0.0000 O   0  0  0  0  0  0  0  0  0  0  0  0
   -1.2990    2.2500    0.0000 O   0  0  0  0  0  0  0  0  0  0  0  0
  1  2  1  0
  2  3  1  0
  3  4  1  0
  4  5  1  0
  4  6  2  0
  2  7  1  0
  7  8  1  0
  8  9  1  0
  8 10  2  0
M  END
>  <Name>  (99) 
N-Methyliminodiethanoic acid

>  <logK_La_z=3.0_T=25_I=0.1>  (99) 
6.18

$$$$

     RDKit          2D

 11 11  0  0  0  0  0  0  0  0999 V2000
    3.0000    0.0000    0.0000 O   0  0  0  0  0  0  0  0  0  0  0  0
    1.5000    0.0000    0.0000 C   0  0  0  0  0  0  0  0  0  0  0  0
    0.7500   -1.2990    0.0000 C   0  0  0  0  0  0  0  0  0  0  0  0
   -0.7500   -1.2990    0.0000 C   0  0  0  0  0  0  0  0  0  0  0  0
   -1.5000    0.0000    0.0000 C   0  0  0  0  0  0  0  0  0  0  0  0
   -0.7500    1.2990    0.0000 C   0  0  0  0  0  0  0  0  0  0  0  0
   -1.5000    2.5981    0.0000 O   0  0  0  0  0  0  0  0  0  0  0  0
    0.7500    1.2990    0.0000 C   0  0  0  0  0  0  0  0  0  0  0  0
   -3.0000    0.0000    0.0000 N   0  0  0  0  0  4  0  0  0  0  0  0
   -3.7500    1.2990    0.0000 O   0  0  0  0  0  1  0  0  0  0  0  0
   -3.7500   -1.2990    0.0000 O   0  0  0  0  0  0  0  0  0  0  0  0
  1  2  1  0
  2  3  2  0
  3  4  1  0
  4  5  2  0
  5  6  1  0
  6  7  1  0
  6  8  2  0
  5  9  1  0
  9 10  1  0
  9 11  2  0
  8  2  1  0
M  CHG  2   9   1  10  -1
M  END
>  <Name>  (100) 
2,4-Dihydroxy-1-nitrobenzene

>  <logK_La_z=3.0_T=25_I=0.1>  (100) 
5.42

$$$$

     RDKit          2D

  9  9  0  0  0  0  0  0  0  0999 V2000
    3.7500   -1.2990    0.0000 O   0  0  0  0  0  0  0  0  0  0  0  0
    3.0000    0.0000    0.0000 C   0  0  0  0  0  0  0  0  0  0  0  0
    3.7500    1.2990    0.0000 O   0  0  0  0  0  0  0  0  0  0  0  0
    1.5000    0.0000    0.0000 C   0  0  0  0  0  0  0  0  0  0  0  0
    0.7500   -1.2990    0.0000 C   0  0  0  0  0  0  0  0  0  0  0  0
   -0.7500   -1.2990    0.0000 C   0  0  0  0  0  0  0  0  0  0  0  0
   -1.5000    0.0000    0.0000 C   0  0  0  0  0  0  0  0  0  0  0  0
   -0.7500    1.2990    0.0000 C   0  0  0  0  0  0  0  0  0  0  0  0
    0.7500    1.2990    0.0000 N   0  0  0  0  0  0  0  0  0  0  0  0
  1  2  1  0
  2  3  2  0
  2  4  1  0
  4  5  2  0
  5  6  1  0
  6  7  2  0
  7  8  1  0
  8  9  2  0
  9  4  1  0
M  END
>  <Name>  (101) 
2-Pyridine-carboxylic acid

>  <logK_La_z=3.0_T=25_I=0.1>  (101) 
3.53

>  <logK_La_z=3.0_T=25_I=0.5>  (101) 
3.19

$$$$

     RDKit          2D

 17 17  0  0  0  0  0  0  0  0999 V2000
    3.5260    1.2990    0.0000 O   0  0  0  0  0  0  0  0  0  0  0  0
    2.7760    0.0000    0.0000 C   0  0  0  0  0  0  0  0  0  0  0  0
    3.5260   -1.2990    0.0000 O   0  0  0  0  0  0  0  0  0  0  0  0
    1.2760    0.0000    0.0000 C   0  0  0  0  0  0  0  0  0  0  0  0
    0.3943    1.2135    0.0000 O   0  0  0  0  0  0  0  0  0  0  0  0
   -1.0323    0.7500    0.0000 C   0  0  0  0  0  0  0  0  0  0  0  0
   -1.0323   -0.7500    0.0000 C   0  0  0  0  0  0  0  0  0  0  0  0
    0.3943   -1.2135    0.0000 C   0  0  0  0  0  0  0  0  0  0  0  0
    0.8578   -2.6401    0.0000 C   0  0  0  0  0  0  0  0  0  0  0  0
    2.3250   -2.9520    0.0000 O   0  0  0  0  0  0  0  0  0  0  0  0
   -0.1459   -3.7548    0.0000 O   0  0  0  0  0  0  0  0  0  0  0  0
   -2.2458   -1.6317    0.0000 C   0  0  0  0  0  0  0  0  0  0  0  0
   -3.6161   -1.0216    0.0000 O   0  0  0  0  0  0  0  0  0  0  0  0
   -2.0890   -3.1235    0.0000 O   0  0  0  0  0  0  0  0  0  0  0  0
   -2.2458    1.6317    0.0000 C   0  0  0  0  0  0  0  0  0  0  0  0
   -2.0890    3.1235    0.0000 O   0  0  0  0  0  0  0  0  0  0  0  0
   -3.6161    1.0216    0.0000 O   0  0  0  0  0  0  0  0  0  0  0  0
  1  2  1  0
  2  3  2  0
  2  4  1  0
  4  5  1  0
  5  6  1  0
  6  7  1  0
  7  8  1  0
  8  9  1  0
  9 10  1  0
  9 11  2  0
  7 12  1  0
 12 13  1  0
 12 14  2  0
  6 15  1  0
 15 16  1  0
 15 17  2  0
  8  4  1  0
M  END
>  <Name>  (102) 
Tetrahydrofuran-2,3,4,5-tetracarboxylic acid

>  <logK_La_z=3.0_T=25_I=0.1>  (102) 
8.45

$$$$

     RDKit          2D

  9  8  0  0  0  0  0  0  0  0999 V2000
    0.0000    0.0000    0.0000 C   0  0  0  0  0  0  0  0  0  0  0  0
    1.2990    0.7500    0.0000 C   0  0  0  0  0  0  0  0  0  0  0  0
    2.5981   -0.0000    0.0000 C   0  0  0  0  0  0  0  0  0  0  0  0
    3.8971    0.7500    0.0000 C   0  0  0  0  0  0  0  0  0  0  0  0
    5.1962   -0.0000    0.0000 O   0  0  0  0  0  0  0  0  0  0  0  0
    3.8971    2.2500    0.0000 O   0  0  0  0  0  0  0  0  0  0  0  0
    1.2990    2.2500    0.0000 C   0  0  0  0  0  0  0  0  0  0  0  0
    2.5981    3.0000    0.0000 O   0  0  0  0  0  0  0  0  0  0  0  0
   -0.0000    3.0000    0.0000 O   0  0  0  0  0  0  0  0  0  0  0  0
  1  2  1  0
  2  3  1  0
  3  4  1  0
  4  5  1  0
  4  6  2  0
  2  7  1  0
  7  8  1  0
  7  9  2  0
M  END
>  <Name>  (103) 
Methylsuccinic acid

>  <logK_La_z=3.0_T=25_I=0.1>  (103) 
2.9500000000000006

>  <logK_La_z=3.0_T=25_I=0.5>  (103) 
2.52

$$$$

     RDKit          2D

  9  8  0  0  0  0  0  0  0  0999 V2000
    0.0000    0.0000    0.0000 C   0  0  0  0  0  0  0  0  0  0  0  0
    1.2990    0.7500    0.0000 C   0  0  0  0  0  0  0  0  0  0  0  0
    2.5981   -0.0000    0.0000 C   0  0  0  0  0  0  0  0  0  0  0  0
    1.2990    2.2500    0.0000 C   0  0  0  0  0  0  0  0  0  0  0  0
    2.5981    3.0000    0.0000 C   0  0  0  0  0  0  0  0  0  0  0  0
    3.8971    2.2500    0.0000 N   0  0  0  0  0  0  0  0  0  0  0  0
    2.5981    4.5000    0.0000 C   0  0  0  0  0  0  0  0  0  0  0  0
    3.8971    5.2500    0.0000 O   0  0  0  0  0  0  0  0  0  0  0  0
    1.2990    5.2500    0.0000 O   0  0  0  0  0  0  0  0  0  0  0  0
  1  2  1  0
  2  3  1  0
  2  4  1  0
  4  5  1  0
  5  6  1  0
  5  7  1  0
  7  8  1  0
  7  9  2  0
M  END
>  <Name>  (104) 
2-Amino-4-methylpentanoic acid

>  <logK_La_z=3.0_T=25_I=0.1>  (104) 
5.25

$$$$

     RDKit          2D

 13 14  0  0  0  0  0  0  0  0999 V2000
   -3.0000   -2.5981    0.0000 O   0  0  0  0  0  0  0  0  0  0  0  0
   -1.5000   -2.5981    0.0000 C   0  0  0  0  0  0  0  0  0  0  0  0
   -0.7500   -3.8971    0.0000 C   0  0  0  0  0  0  0  0  0  0  0  0
    0.7500   -3.8971    0.0000 C   0  0  0  0  0  0  0  0  0  0  0  0
    1.5000   -2.5981    0.0000 C   0  0  0  0  0  0  0  0  0  0  0  0
    0.7500   -1.2990    0.0000 C   0  0  0  0  0  0  0  0  0  0  0  0
    1.5000    0.0000    0.0000 C   0  0  0  0  0  0  0  0  0  0  0  0
    0.7500    1.2990    0.0000 C   0  0  0  0  0  0  0  0  0  0  0  0
   -0.7500    1.2990    0.0000 C   0  0  0  0  0  0  0  0  0  0  0  0
   -1.5000    0.0000    0.0000 C   0  0  0  0  0  0  0  0  0  0  0  0
   -0.7500   -1.2990    0.0000 C   0  0  0  0  0  0  0  0  0  0  0  0
   -1.5000   -5.1962    0.0000 N   0  0  0  0  0  0  0  0  0  0  0  0
   -3.0000   -5.1962    0.0000 O   0  0  0  0  0  0  0  0  0  0  0  0
  1  2  1  0
  2  3  2  0
  3  4  1  0
  4  5  2  0
  5  6  1  0
  6  7  2  0
  7  8  1  0
  8  9  2  0
  9 10  1  0
 10 11  2  0
  3 12  1  0
 12 13  2  0
 11  2  1  0
 11  6  1  0
M  END
>  <Name>  (105) 
2-Nitroso-1-naphthol

>  <logK_La_z=3.0_T=25_I=0.1>  (105) 
5.37

$$$$

     RDKit          2D

 10  9  0  0  0  0  0  0  0  0999 V2000
    2.5981   -0.0000    0.0000 O   0  0  0  0  0  0  0  0  0  0  0  0
    1.2990    0.7500    0.0000 C   0  0  0  0  0  0  0  0  0  0  0  0
    1.2990    2.2500    0.0000 O   0  0  0  0  0  0  0  0  0  0  0  0
    0.0000    0.0000    0.0000 C   0  0  0  0  0  0  0  0  0  0  0  0
   -1.2990    0.7500    0.0000 N   0  0  0  0  0  0  0  0  0  0  0  0
   -2.5981    0.0000    0.0000 C   0  0  0  0  0  0  0  0  0  0  0  0
   -3.8971    0.7500    0.0000 P   0  0  0  0  0  5  0  0  0  0  0  0
   -4.6471   -0.5490    0.0000 O   0  0  0  0  0  0  0  0  0  0  0  0
   -3.1471    2.0490    0.0000 O   0  0  0  0  0  0  0  0  0  0  0  0
   -5.1962    1.5000    0.0000 O   0  0  0  0  0  0  0  0  0  0  0  0
  1  2  1  0
  2  3  2  0
  2  4  1  0
  4  5  1  0
  5  6  1  0
  6  7  1  0
  7  8  1  0
  7  9  1  0
  7 10  2  0
M  END
>  <Name>  (106) 
N-(Phosphonomethyl)glycine

>  <logK_La_z=3.0_T=25_I=0.1>  (106) 
6.7

$$$$

     RDKit          2D

 14 14  0  0  0  0  0  0  0  0999 V2000
    3.0000    0.0000    0.0000 N   0  0  0  0  0  0  0  0  0  0  0  0
    1.5000    0.0000    0.0000 C   0  0  0  0  0  0  0  0  0  0  0  0
    0.7500   -1.2990    0.0000 C   0  0  0  0  0  0  0  0  0  0  0  0
   -0.7500   -1.2990    0.0000 C   0  0  0  0  0  0  0  0  0  0  0  0
   -1.5000    0.0000    0.0000 C   0  0  0  0  0  0  0  0  0  0  0  0
   -0.7500    1.2990    0.0000 C   0  0  0  0  0  0  0  0  0  0  0  0
    0.7500    1.2990    0.0000 C   0  0  0  0  0  0  0  0  0  0  0  0
    1.5000    2.5981    0.0000 C   0  0  0  0  0  0  0  0  0  0  0  0
    3.0000    2.5981    0.0000 O   0  0  0  0  0  0  0  0  0  0  0  0
    0.7500    3.8971    0.0000 O   0  0  0  0  0  0  0  0  0  0  0  0
   -3.0000    0.0000    0.0000 S   0  0  0  0  0  6  0  0  0  0  0  0
   -4.5000    0.0000    0.0000 O   0  0  0  0  0  0  0  0  0  0  0  0
   -3.0000    1.5000    0.0000 O   0  0  0  0  0  0  0  0  0  0  0  0
   -3.0000   -1.5000    0.0000 O   0  0  0  0  0  0  0  0  0  0  0  0
  1  2  1  0
  2  3  2  0
  3  4  1  0
  4  5  2  0
  5  6  1  0
  6  7  2  0
  7  8  1  0
  8  9  1  0
  8 10  2  0
  5 11  1  0
 11 12  1  0
 11 13  2  0
 11 14  2  0
  7  2  1  0
M  END
>  <Name>  (107) 
5-Sulfoanthranilic acid

>  <logK_La_z=3.0_T=25_I=0.1>  (107) 
3.23

$$$$

     RDKit          2D

 12 12  0  0  0  0  0  0  0  0999 V2000
    3.0000   -2.5981    0.0000 N   0  0  0  0  0  0  0  0  0  0  0  0
    3.7500   -1.2990    0.0000 C   0  0  0  0  0  0  0  0  0  0  0  0
    3.0000    0.0000    0.0000 C   0  0  0  0  0  0  0  0  0  0  0  0
    1.5000    0.0000    0.0000 C   0  0  0  0  0  0  0  0  0  0  0  0
    0.7500   -1.2990    0.0000 C   0  0  0  0  0  0  0  0  0  0  0  0
   -0.7500   -1.2990    0.0000 C   0  0  0  0  0  0  0  0  0  0  0  0
   -1.5000    0.0000    0.0000 C   0  0  0  0  0  0  0  0  0  0  0  0
   -0.7500    1.2990    0.0000 C   0  0  0  0  0  0  0  0  0  0  0  0
    0.7500    1.2990    0.0000 C   0  0  0  0  0  0  0  0  0  0  0  0
    5.2500   -1.2990    0.0000 C   0  0  0  0  0  0  0  0  0  0  0  0
    6.0000   -2.5981    0.0000 O   0  0  0  0  0  0  0  0  0  0  0  0
    6.0000    0.0000    0.0000 O   0  0  0  0  0  0  0  0  0  0  0  0
  1  2  1  0
  2  3  1  0
  3  4  1  0
  4  5  2  0
  5  6  1  0
  6  7  2  0
  7  8  1  0
  8  9  2  0
  2 10  1  0
 10 11  1  0
 10 12  2  0
  9  4  1  0
M  END
>  <Name>  (108) 
2-Amino-3-phenylpropanoic acid

>  <logK_La_z=3.0_T=25_I=0.1>  (108) 
2.85

$$$$

     RDKit          2D

 18 18  0  0  0  0  0  0  0  0999 V2000
    4.3191    0.0000    0.0000 C   0  0  0  0  0  0  0  0  0  0  0  0
    4.0586   -1.4772    0.0000 C   0  0  0  0  0  0  0  0  0  0  0  0
    3.3086   -2.7762    0.0000 O   0  0  0  0  0  0  0  0  0  0  0  0
    2.1595   -3.7404    0.0000 C   0  0  0  0  0  0  0  0  0  0  0  0
    0.7500   -4.2535    0.0000 C   0  0  0  0  0  0  0  0  0  0  0  0
   -0.7500   -4.2535    0.0000 O   0  0  0  0  0  0  0  0  0  0  0  0
   -2.1595   -3.7404    0.0000 C   0  0  0  0  0  0  0  0  0  0  0  0
   -3.3086   -2.7762    0.0000 C   0  0  0  0  0  0  0  0  0  0  0  0
   -4.0586   -1.4772    0.0000 O   0  0  0  0  0  0  0  0  0  0  0  0
   -4.3191    0.0000    0.0000 C   0  0  0  0  0  0  0  0  0  0  0  0
   -4.0586    1.4772    0.0000 C   0  0  0  0  0  0  0  0  0  0  0  0
   -3.3086    2.7762    0.0000 O   0  0  0  0  0  0  0  0  0  0  0  0
   -2.1595    3.7404    0.0000 C   0  0  0  0  0  0  0  0  0  0  0  0
   -0.7500    4.2535    0.0000 C   0  0  0  0  0  0  0  0  0  0  0  0
    0.7500    4.2535    0.0000 O   0  0  0  0  0  0  0  0  0  0  0  0
    2.1595    3.7404    0.0000 C   0  0  0  0  0  0  0  0  0  0  0  0
    3.3086    2.7762    0.0000 C   0  0  0  0  0  0  0  0  0  0  0  0
    4.0586    1.4772    0.0000 O   0  0  0  0  0  0  0  0  0  0  0  0
  1  2  1  0
  2  3  1  0
  3  4  1  0
  4  5  1  0
  5  6  1  0
  6  7  1  0
  7  8  1  0
  8  9  1  0
  9 10  1  0
 10 11  1  0
 11 12  1  0
 12 13  1  0
 13 14  1  0
 14 15  1  0
 15 16  1  0
 16 17  1  0
 17 18  1  0
 18  1  1  0
M  END
>  <Name>  (109) 
1,4,7,10,13,16-Hexaoxacyclooctadecane

>  <logK_La_z=3.0_T=25_I=0.1>  (109) 
1.11

$$$$

     RDKit          2D

 13 12  0  0  0  0  0  0  0  0999 V2000
    2.5981   -0.0000    0.0000 O   0  0  0  0  0  0  0  0  0  0  0  0
    1.2990    0.7500    0.0000 C   0  0  0  0  0  0  0  0  0  0  0  0
    1.2990    2.2500    0.0000 O   0  0  0  0  0  0  0  0  0  0  0  0
    0.0000    0.0000    0.0000 C   0  0  0  0  0  0  0  0  0  0  0  0
   -1.2990    0.7500    0.0000 S   0  0  0  0  0  0  0  0  0  0  0  0
   -2.5981    0.0000    0.0000 C   0  0  0  0  0  0  0  0  0  0  0  0
   -3.8971    0.7500    0.0000 C   0  0  0  0  0  0  0  0  0  0  0  0
   -5.1962    0.0000    0.0000 C   0  0  0  0  0  0  0  0  0  0  0  0
   -6.4952    0.7500    0.0000 O   0  0  0  0  0  0  0  0  0  0  0  0
   -5.1962   -1.5000    0.0000 O   0  0  0  0  0  0  0  0  0  0  0  0
   -2.5981   -1.5000    0.0000 C   0  0  0  0  0  0  0  0  0  0  0  0
   -3.8971   -2.2500    0.0000 O   0  0  0  0  0  0  0  0  0  0  0  0
   -1.2990   -2.2500    0.0000 O   0  0  0  0  0  0  0  0  0  0  0  0
  1  2  1  0
  2  3  2  0
  2  4  1  0
  4  5  1  0
  5  6  1  0
  6  7  1  0
  7  8  1  0
  8  9  1  0
  8 10  2  0
  6 11  1  0
 11 12  1  0
 11 13  2  0
M  END
>  <Name>  (110) 
(Carboxymethylthio)butanedioic acid

>  <logK_La_z=3.0_T=25_I=0.1>  (110) 
4.38

$$$$

     RDKit          2D

 15 15  0  0  0  0  0  0  0  0999 V2000
    3.7500   -1.2990    0.0000 O   0  0  0  0  0  0  0  0  0  0  0  0
    3.0000    0.0000    0.0000 C   0  0  0  0  0  0  0  0  0  0  0  0
    3.7500    1.2990    0.0000 O   0  0  0  0  0  0  0  0  0  0  0  0
    1.5000    0.0000    0.0000 C   0  0  0  0  0  0  0  0  0  0  0  0
    0.7500   -1.2990    0.0000 C   0  0  0  0  0  0  0  0  0  0  0  0
   -0.7500   -1.2990    0.0000 C   0  0  0  0  0  0  0  0  0  0  0  0
   -1.5000    0.0000    0.0000 C   0  0  0  0  0  0  0  0  0  0  0  0
   -0.7500    1.2990    0.0000 C   0  0  0  0  0  0  0  0  0  0  0  0
   -1.5000    2.5981    0.0000 C   0  0  0  0  0  0  0  0  0  0  0  0
   -0.7500    3.8971    0.0000 O   0  0  0  0  0  0  0  0  0  0  0  0
   -3.0000    2.5981    0.0000 O   0  0  0  0  0  0  0  0  0  0  0  0
    0.7500    1.2990    0.0000 C   0  0  0  0  0  0  0  0  0  0  0  0
    1.5000    2.5981    0.0000 C   0  0  0  0  0  0  0  0  0  0  0  0
    3.0000    2.5981    0.0000 O   0  0  0  0  0  0  0  0  0  0  0  0
    0.7500    3.8971    0.0000 O   0  0  0  0  0  0  0  0  0  0  0  0
  1  2  1  0
  2  3  2  0
  2  4  1  0
  4  5  2  0
  5  6  1  0
  6  7  2  0
  7  8  1  0
  8  9  1  0
  9 10  1  0
  9 11  2  0
  8 12  2  0
 12 13  1  0
 13 14  1  0
 13 15  2  0
 12  4  1  0
M  END
>  <Name>  (111) 
1,2,3-Benzenetricarboxylic acid

>  <logK_La_z=3.0_T=25_I=0.1>  (111) 
4.81

$$$$

     RDKit          2D

 11 11  0  0  0  0  0  0  0  0999 V2000
    3.7500   -1.2990    0.0000 C   0  0  0  0  0  0  0  0  0  0  0  0
    3.0000    0.0000    0.0000 O   0  0  0  0  0  0  0  0  0  0  0  0
    1.5000    0.0000    0.0000 C   0  0  0  0  0  0  0  0  0  0  0  0
    0.7500   -1.2990    0.0000 C   0  0  0  0  0  0  0  0  0  0  0  0
   -0.7500   -1.2990    0.0000 C   0  0  0  0  0  0  0  0  0  0  0  0
   -1.5000    0.0000    0.0000 C   0  0  0  0  0  0  0  0  0  0  0  0
   -0.7500    1.2990    0.0000 C   0  0  0  0  0  0  0  0  0  0  0  0
    0.7500    1.2990    0.0000 C   0  0  0  0  0  0  0  0  0  0  0  0
   -3.0000    0.0000    0.0000 C   0  0  0  0  0  0  0  0  0  0  0  0
   -3.7500    1.2990    0.0000 O   0  0  0  0  0  0  0  0  0  0  0  0
   -3.7500   -1.2990    0.0000 O   0  0  0  0  0  0  0  0  0  0  0  0
  1  2  1  0
  2  3  1  0
  3  4  2  0
  4  5  1  0
  5  6  2  0
  6  7  1  0
  7  8  2  0
  6  9  1  0
  9 10  1  0
  9 11  2  0
  8  3  1  0
M  END
>  <Name>  (112) 
4-Methoxybenzoic acid

>  <logK_La_z=3.0_T=25_I=0.1>  (112) 
2.06

$$$$

     RDKit          2D

 11 11  0  0  0  0  0  0  0  0999 V2000
    3.7500   -1.2990    0.0000 O   0  0  0  0  0  0  0  0  0  0  0  0
    3.0000    0.0000    0.0000 C   0  0  0  0  0  0  0  0  0  0  0  0
    3.7500    1.2990    0.0000 O   0  0  0  0  0  0  0  0  0  0  0  0
    1.5000    0.0000    0.0000 C   0  0  0  0  0  0  0  0  0  0  0  0
    0.7500   -1.2990    0.0000 C   0  0  0  0  0  0  0  0  0  0  0  0
   -0.7500   -1.2990    0.0000 C   0  0  0  0  0  0  0  0  0  0  0  0
   -1.5000    0.0000    0.0000 C   0  0  0  0  0  0  0  0  0  0  0  0
   -3.0000    0.0000    0.0000 O   0  0  0  0  0  0  0  0  0  0  0  0
   -0.7500    1.2990    0.0000 C   0  0  0  0  0  0  0  0  0  0  0  0
    0.7500    1.2990    0.0000 C   0  0  0  0  0  0  0  0  0  0  0  0
    1.5000    2.5981    0.0000 O   0  0  0  0  0  0  0  0  0  0  0  0
  1  2  1  0
  2  3  2  0
  2  4  1  0
  4  5  2  0
  5  6  1  0
  6  7  2  0
  7  8  1  0
  7  9  1  0
  9 10  2  0
 10 11  1  0
 10  4  1  0
M  END
>  <Name>  (113) 
2,4-Dihydroxybenzoic acid

>  <logK_La_z=3.0_T=25_I=0.1>  (113) 
6.45

$$$$

     RDKit          2D

  5  4  0  0  0  0  0  0  0  0999 V2000
   -1.2990    0.7500    0.0000 O   0  0  0  0  0  0  0  0  0  0  0  0
    0.0000    0.0000    0.0000 C   0  0  0  0  0  0  0  0  0  0  0  0
    1.2990    0.7500    0.0000 C   0  0  0  0  0  0  0  0  0  0  0  0
    2.5981   -0.0000    0.0000 O   0  0  0  0  0  0  0  0  0  0  0  0
    1.2990    2.2500    0.0000 O   0  0  0  0  0  0  0  0  0  0  0  0
  1  2  1  0
  2  3  1  0
  3  4  1  0
  3  5  2  0
M  END
>  <Name>  (114) 
2-Hydroxyethanoic acid

>  <logK_La_z=3.0_T=25_I=0.1>  (114) 
3.72

>  <logK_La_z=3.0_T=20_I=0.1>  (114) 
2.55

>  <logK_La_z=3.0_T=25_I=0.5>  (114) 
2.27

>  <logK_La_z=3.0_T=25_I=1.0>  (114) 
2.13

>  <logK_La_z=3.0_T=25_I=2.0>  (114) 
2.15

$$$$

     RDKit          2D

  8  7  0  0  0  0  0  0  0  0999 V2000
    0.0000    0.0000    0.0000 C   0  0  0  0  0  0  0  0  0  0  0  0
    1.2990    0.7500    0.0000 C   0  0  0  0  0  0  0  0  0  0  0  0
    2.5981   -0.0000    0.0000 C   0  0  0  0  0  0  0  0  0  0  0  0
    1.2990    2.2500    0.0000 C   0  0  0  0  0  0  0  0  0  0  0  0
   -0.0000    3.0000    0.0000 N   0  0  0  0  0  0  0  0  0  0  0  0
    2.5981    3.0000    0.0000 C   0  0  0  0  0  0  0  0  0  0  0  0
    2.5981    4.5000    0.0000 O   0  0  0  0  0  0  0  0  0  0  0  0
    3.8971    2.2500    0.0000 O   0  0  0  0  0  0  0  0  0  0  0  0
  1  2  1  0
  2  3  1  0
  2  4  1  0
  4  5  1  0
  4  6  1  0
  6  7  1  0
  6  8  2  0
M  END
>  <Name>  (115) 
2-Amino-3-methylbutanoic acid

>  <logK_La_z=3.0_T=25_I=0.1>  (115) 
5.41

$$$$

     RDKit          2D

 16 15  0  0  0  0  0  0  0  0999 V2000
   -2.5981    0.0000    0.0000 N   0  0  0  0  0  0  0  0  0  0  0  0
   -1.2990    0.7500    0.0000 C   0  0  0  0  0  0  0  0  0  0  0  0
   -1.2990    2.2500    0.0000 O   0  0  0  0  0  0  0  0  0  0  0  0
    0.0000    0.0000    0.0000 C   0  0  0  0  0  0  0  0  0  0  0  0
    1.2990    0.7500    0.0000 C   0  0  0  0  0  0  0  0  0  0  0  0
    2.5981   -0.0000    0.0000 C   0  0  0  0  0  0  0  0  0  0  0  0
    3.8971    0.7500    0.0000 C   0  0  0  0  0  0  0  0  0  0  0  0
    5.1962   -0.0000    0.0000 C   0  0  0  0  0  0  0  0  0  0  0  0
    6.4952    0.7500    0.0000 C   0  0  0  0  0  0  0  0  0  0  0  0
    7.7942   -0.0000    0.0000 C   0  0  0  0  0  0  0  0  0  0  0  0
    9.0933    0.7500    0.0000 C   0  0  0  0  0  0  0  0  0  0  0  0
   10.3923   -0.0000    0.0000 C   0  0  0  0  0  0  0  0  0  0  0  0
   10.3923   -1.5000    0.0000 O   0  0  0  0  0  0  0  0  0  0  0  0
   11.6913    0.7500    0.0000 N   0  0  0  0  0  0  0  0  0  0  0  0
   12.9904   -0.0000    0.0000 O   0  0  0  0  0  0  0  0  0  0  0  0
   11.6913    2.2500    0.0000 O   0  0  0  0  0  0  0  0  0  0  0  0
  1  2  1  0
  2  3  2  0
  2  4  1  0
  4  5  1  0
  5  6  1  0
  6  7  1  0
  7  8  1  0
  8  9  1  0
  9 10  1  0
 10 11  1  0
 11 12  1  0
 12 13  2  0
 12 14  1  0
 14 15  1  0
 14 16  1  0
M  END
>  <Name>  (116) 
N,N-Dihydroxydecanediamide

>  <logK_La_z=3.0_T=25_I=0.1>  (116) 
10.33

$$$$

     RDKit          2D

  7  7  0  0  0  0  0  0  0  0999 V2000
    3.0000    0.0000    0.0000 O   0  0  0  0  0  0  0  0  0  0  0  0
    1.5000    0.0000    0.0000 C   0  0  0  0  0  0  0  0  0  0  0  0
    0.7500   -1.2990    0.0000 C   0  0  0  0  0  0  0  0  0  0  0  0
   -0.7500   -1.2990    0.0000 C   0  0  0  0  0  0  0  0  0  0  0  0
   -1.5000    0.0000    0.0000 C   0  0  0  0  0  0  0  0  0  0  0  0
   -0.7500    1.2990    0.0000 C   0  0  0  0  0  0  0  0  0  0  0  0
    0.7500    1.2990    0.0000 C   0  0  0  0  0  0  0  0  0  0  0  0
  1  2  1  0
  2  3  2  0
  3  4  1  0
  4  5  2  0
  5  6  1  0
  6  7  2  0
  7  2  1  0
M  END
>  <Name>  (117) 
Hydroxybenzene

>  <logK_La_z=3.0_T=25_I=0.1>  (117) 
3.283333333333333

$$$$

     RDKit          2D

 14 14  0  0  0  0  0  0  0  0999 V2000
    7.5000   -2.5981    0.0000 O   0  0  0  0  0  0  0  0  0  0  0  0
    6.0000   -2.5981    0.0000 C   0  0  0  0  0  0  0  0  0  0  0  0
    5.2500   -1.2990    0.0000 C   0  0  0  0  0  0  0  0  0  0  0  0
    3.7500   -1.2990    0.0000 N   0  0  0  0  0  0  0  0  0  0  0  0
    3.0000   -2.5981    0.0000 C   0  0  0  0  0  0  0  0  0  0  0  0
    3.7500   -3.8971    0.0000 C   0  0  0  0  0  0  0  0  0  0  0  0
    3.0000   -5.1962    0.0000 O   0  0  0  0  0  0  0  0  0  0  0  0
    3.0000    0.0000    0.0000 C   0  0  0  0  0  0  0  0  0  0  0  0
    1.5000    0.0000    0.0000 C   0  0  0  0  0  0  0  0  0  0  0  0
    0.7500   -1.2990    0.0000 C   0  0  0  0  0  0  0  0  0  0  0  0
   -0.7500   -1.2990    0.0000 C   0  0  0  0  0  0  0  0  0  0  0  0
   -1.5000    0.0000    0.0000 C   0  0  0  0  0  0  0  0  0  0  0  0
   -0.7500    1.2990    0.0000 C   0  0  0  0  0  0  0  0  0  0  0  0
    0.7500    1.2990    0.0000 N   0  0  0  0  0  0  0  0  0  0  0  0
  1  2  1  0
  2  3  1  0
  3  4  1  0
  4  5  1  0
  5  6  1  0
  6  7  1  0
  4  8  1  0
  8  9  1  0
  9 10  2  0
 10 11  1  0
 11 12  2  0
 12 13  1  0
 13 14  2  0
 14  9  1  0
M  END
>  <Name>  (118) 
N-(2-Pyridylmethyl)iminodiethanol

>  <logK_La_z=3.0_T=25_I=0.1>  (118) 
1.95

$$$$

     RDKit          2D

 11 11  0  0  0  0  0  0  0  0999 V2000
    3.7500   -1.2990    0.0000 O   0  0  0  0  0  0  0  0  0  0  0  0
    3.0000    0.0000    0.0000 C   0  0  0  0  0  0  0  0  0  0  0  0
    1.5000    0.0000    0.0000 C   0  0  0  0  0  0  0  0  0  0  0  0
    0.7500   -1.2990    0.0000 C   0  0  0  0  0  0  0  0  0  0  0  0
   -0.7500   -1.2990    0.0000 C   0  0  0  0  0  0  0  0  0  0  0  0
   -1.5000   -2.5981    0.0000 O   0  0  0  0  0  0  0  0  0  0  0  0
   -1.5000    0.0000    0.0000 C   0  0  0  0  0  0  0  0  0  0  0  0
   -0.7500    1.2990    0.0000 C   0  0  0  0  0  0  0  0  0  0  0  0
   -1.5000    2.5981    0.0000 Br  0  0  0  0  0  0  0  0  0  0  0  0
    0.7500    1.2990    0.0000 O   0  0  0  0  0  0  0  0  0  0  0  0
   -3.0000    0.0000    0.0000 O   0  0  0  0  0  0  0  0  0  0  0  0
  1  2  1  0
  2  3  1  0
  3  4  2  0
  4  5  1  0
  5  6  2  0
  5  7  1  0
  7  8  2  0
  8  9  1  0
  8 10  1  0
  7 11  1  0
 10  3  1  0
M  END
>  <Name>  (119) 
6-Bromo-5-hydroxy-2-(hydroxymethyl)-4H-pyran-4-one

>  <logK_La_z=3.0_T=25_I=0.1>  (119) 
4.68

$$$$

     RDKit          2D

 15 15  0  0  0  0  0  0  0  0999 V2000
    3.7500   -1.2990    0.0000 C   0  0  0  0  0  0  0  0  0  0  0  0
    3.0000    0.0000    0.0000 C   0  0  0  0  0  0  0  0  0  0  0  0
    3.7500    1.2990    0.0000 N   0  0  0  0  0  0  0  0  0  0  0  0
    5.2500    1.2990    0.0000 C   0  0  0  0  0  0  0  0  0  0  0  0
    6.0000    2.5981    0.0000 C   0  0  0  0  0  0  0  0  0  0  0  0
    7.5000    2.5981    0.0000 C   0  0  0  0  0  0  0  0  0  0  0  0
    8.2500    3.8971    0.0000 O   0  0  0  0  0  0  0  0  0  0  0  0
    8.2500    1.2990    0.0000 O   0  0  0  0  0  0  0  0  0  0  0  0
    1.5000    0.0000    0.0000 C   0  0  0  0  0  0  0  0  0  0  0  0
    0.7500   -1.2990    0.0000 C   0  0  0  0  0  0  0  0  0  0  0  0
   -0.7500   -1.2990    0.0000 C   0  0  0  0  0  0  0  0  0  0  0  0
   -1.5000    0.0000    0.0000 C   0  0  0  0  0  0  0  0  0  0  0  0
   -0.7500    1.2990    0.0000 C   0  0  0  0  0  0  0  0  0  0  0  0
    0.7500    1.2990    0.0000 C   0  0  0  0  0  0  0  0  0  0  0  0
    1.5000    2.5981    0.0000 O   0  0  0  0  0  0  0  0  0  0  0  0
  1  2  1  0
  2  3  2  3
  3  4  1  0
  4  5  1  0
  5  6  1  0
  6  7  1  0
  6  8  2  0
  2  9  1  0
  9 10  2  0
 10 11  1  0
 11 12  2  0
 12 13  1  0
 13 14  2  0
 14 15  1  0
 14  9  1  0
M  END
>  <Name>  (120) 
N-[1-(2-Hydroxyphenyl)ethylidene]-beta-alanine

>  <logK_La_z=3.0_T=25_I=0.1>  (120) 
6.97

$$$$

     RDKit          2D

 13 12  0  0  0  0  0  0  0  0999 V2000
    2.5981   -0.0000    0.0000 O   0  0  0  0  0  0  0  0  0  0  0  0
    1.2990    0.7500    0.0000 C   0  0  0  0  0  0  0  0  0  0  0  0
    1.2990    2.2500    0.0000 O   0  0  0  0  0  0  0  0  0  0  0  0
    0.0000    0.0000    0.0000 C   0  0  0  0  0  0  0  0  0  0  0  0
   -1.2990    0.7500    0.0000 N   0  0  0  0  0  0  0  0  0  0  0  0
   -2.5981    0.0000    0.0000 C   0  0  0  0  0  0  0  0  0  0  0  0
   -2.5981   -1.5000    0.0000 C   0  0  0  0  0  0  0  0  0  0  0  0
   -3.8971   -2.2500    0.0000 O   0  0  0  0  0  0  0  0  0  0  0  0
   -1.2990   -2.2500    0.0000 O   0  0  0  0  0  0  0  0  0  0  0  0
   -1.2990    2.2500    0.0000 C   0  0  0  0  0  0  0  0  0  0  0  0
   -2.5981    3.0000    0.0000 C   0  0  0  0  0  0  0  0  0  0  0  0
   -2.5981    4.5000    0.0000 O   0  0  0  0  0  0  0  0  0  0  0  0
   -3.8971    2.2500    0.0000 O   0  0  0  0  0  0  0  0  0  0  0  0
  1  2  1  0
  2  3  2  0
  2  4  1  0
  4  5  1  0
  5  6  1  0
  6  7  1  0
  7  8  1  0
  7  9  2  0
  5 10  1  0
 10 11  1  0
 11 12  1  0
 11 13  2  0
M  END
>  <Name>  (121) 
Nitrilotriethanoic acid

>  <logK_La_z=3.0_T=25_I=0.1>  (121) 
10.396666666666668

>  <logK_La_z=3.0_T=25_I=0.5>  (121) 
9.68

$$$$

     RDKit          2D

 11 10  0  0  0  0  0  0  0  0999 V2000
    2.5981   -0.0000    0.0000 N   0  0  0  0  0  0  0  0  0  0  0  0
    1.2990    0.7500    0.0000 C   0  0  0  0  0  0  0  0  0  0  0  0
    1.2990    2.2500    0.0000 O   0  0  0  0  0  0  0  0  0  0  0  0
    0.0000    0.0000    0.0000 C   0  0  0  0  0  0  0  0  0  0  0  0
   -1.2990    0.7500    0.0000 N   0  0  0  0  0  0  0  0  0  0  0  0
   -2.5981    0.0000    0.0000 C   0  0  0  0  0  0  0  0  0  0  0  0
   -3.8971    0.7500    0.0000 C   0  0  0  0  0  0  0  0  0  0  0  0
   -5.1962    0.0000    0.0000 S   0  0  0  0  0  6  0  0  0  0  0  0
   -6.4952   -0.7500    0.0000 O   0  0  0  0  0  0  0  0  0  0  0  0
   -5.9462    1.2990    0.0000 O   0  0  0  0  0  0  0  0  0  0  0  0
   -4.4462   -1.2990    0.0000 O   0  0  0  0  0  0  0  0  0  0  0  0
  1  2  1  0
  2  3  2  0
  2  4  1  0
  4  5  1  0
  5  6  1  0
  6  7  1  0
  7  8  1  0
  8  9  1  0
  8 10  2  0
  8 11  2  0
M  END
>  <Name>  (122) 
N-(2-Acetamido)-2-aminoethanesulfonic acid

>  <logK_La_z=3.0_T=25_I=0.1>  (122) 
3.35

$$$$

     RDKit          2D

 11 11  0  0  0  0  0  0  0  0999 V2000
    3.7500   -1.2990    0.0000 C   0  0  0  0  0  0  0  0  0  0  0  0
    3.0000    0.0000    0.0000 O   0  0  0  0  0  0  0  0  0  0  0  0
    1.5000    0.0000    0.0000 C   0  0  0  0  0  0  0  0  0  0  0  0
    0.7500   -1.2990    0.0000 C   0  0  0  0  0  0  0  0  0  0  0  0
   -0.7500   -1.2990    0.0000 C   0  0  0  0  0  0  0  0  0  0  0  0
   -1.5000    0.0000    0.0000 C   0  0  0  0  0  0  0  0  0  0  0  0
   -0.7500    1.2990    0.0000 C   0  0  0  0  0  0  0  0  0  0  0  0
    0.7500    1.2990    0.0000 C   0  0  0  0  0  0  0  0  0  0  0  0
    1.5000    2.5981    0.0000 C   0  0  0  0  0  0  0  0  0  0  0  0
    3.0000    2.5981    0.0000 O   0  0  0  0  0  0  0  0  0  0  0  0
    0.7500    3.8971    0.0000 O   0  0  0  0  0  0  0  0  0  0  0  0
  1  2  1  0
  2  3  1  0
  3  4  2  0
  4  5  1  0
  5  6  2  0
  6  7  1  0
  7  8  2  0
  8  9  1  0
  9 10  1  0
  9 11  2  0
  8  3  1  0
M  END
>  <Name>  (123) 
2-Methoxybenzoic acid

>  <logK_La_z=3.0_T=25_I=0.1>  (123) 
1.78

$$$$

     RDKit          2D

 18 18  0  0  0  0  0  0  0  0999 V2000
    3.7500   -1.2990    0.0000 O   0  0  0  0  0  0  0  0  0  0  0  0
    3.0000    0.0000    0.0000 C   0  0  0  0  0  0  0  0  0  0  0  0
    3.7500    1.2990    0.0000 O   0  0  0  0  0  0  0  0  0  0  0  0
    1.5000    0.0000    0.0000 C   0  0  0  0  0  0  0  0  0  0  0  0
    0.7500   -1.2990    0.0000 C   0  0  0  0  0  0  0  0  0  0  0  0
   -0.7500   -1.2990    0.0000 C   0  0  0  0  0  0  0  0  0  0  0  0
   -1.5000   -2.5981    0.0000 C   0  0  0  0  0  0  0  0  0  0  0  0
   -3.0000   -2.5981    0.0000 O   0  0  0  0  0  0  0  0  0  0  0  0
   -0.7500   -3.8971    0.0000 O   0  0  0  0  0  0  0  0  0  0  0  0
   -1.5000    0.0000    0.0000 C   0  0  0  0  0  0  0  0  0  0  0  0
   -0.7500    1.2990    0.0000 C   0  0  0  0  0  0  0  0  0  0  0  0
    0.7500    1.2990    0.0000 C   0  0  0  0  0  0  0  0  0  0  0  0
    1.5000    2.5981    0.0000 C   0  0  0  0  0  0  0  0  0  0  0  0
    0.7500    3.8971    0.0000 O   0  0  0  0  0  0  0  0  0  0  0  0
    3.0000    2.5981    0.0000 O   0  0  0  0  0  0  0  0  0  0  0  0
   -3.0000    0.0000    0.0000 C   0  0  0  0  0  0  0  0  0  0  0  0
   -3.7500    1.2990    0.0000 O   0  0  0  0  0  0  0  0  0  0  0  0
   -3.7500   -1.2990    0.0000 O   0  0  0  0  0  0  0  0  0  0  0  0
  1  2  1  0
  2  3  2  0
  2  4  1  0
  4  5  2  0
  5  6  1  0
  6  7  1  0
  7  8  1  0
  7  9  2  0
  6 10  2  0
 10 11  1  0
 11 12  2  0
 12 13  1  0
 13 14  1  0
 13 15  2  0
 10 16  1  0
 16 17  1  0
 16 18  2  0
 12  4  1  0
M  END
>  <Name>  (124) 
Benzene-1,2,4,5-tetracarboxylic acid

>  <logK_La_z=3.0_T=25_I=0.1>  (124) 
4.32

$$$$

     RDKit          2D

 23 22  0  0  0  0  0  0  0  0999 V2000
    2.5981   -0.0000    0.0000 O   0  0  0  0  0  0  0  0  0  0  0  0
    1.2990    0.7500    0.0000 C   0  0  0  0  0  0  0  0  0  0  0  0
    1.2990    2.2500    0.0000 O   0  0  0  0  0  0  0  0  0  0  0  0
    0.0000    0.0000    0.0000 C   0  0  0  0  0  0  0  0  0  0  0  0
   -1.2990    0.7500    0.0000 N   0  0  0  0  0  0  0  0  0  0  0  0
   -2.5981    0.0000    0.0000 C   0  0  0  0  0  0  0  0  0  0  0  0
   -2.5981   -1.5000    0.0000 C   0  0  0  0  0  0  0  0  0  0  0  0
   -3.8971   -2.2500    0.0000 O   0  0  0  0  0  0  0  0  0  0  0  0
   -1.2990   -2.2500    0.0000 O   0  0  0  0  0  0  0  0  0  0  0  0
   -1.2990    2.2500    0.0000 C   0  0  0  0  0  0  0  0  0  0  0  0
   -2.5981    3.0000    0.0000 P   0  0  0  0  0  5  0  0  0  0  0  0
   -3.3481    1.7010    0.0000 O   0  0  0  0  0  0  0  0  0  0  0  0
   -1.8481    4.2990    0.0000 O   0  0  0  0  0  0  0  0  0  0  0  0
   -3.8971    3.7500    0.0000 C   0  0  0  0  0  0  0  0  0  0  0  0
   -3.8971    5.2500    0.0000 N   0  0  0  0  0  0  0  0  0  0  0  0
   -2.5981    6.0000    0.0000 C   0  0  0  0  0  0  0  0  0  0  0  0
   -2.5981    7.5000    0.0000 C   0  0  0  0  0  0  0  0  0  0  0  0
   -1.2990    8.2500    0.0000 O   0  0  0  0  0  0  0  0  0  0  0  0
   -3.8971    8.2500    0.0000 O   0  0  0  0  0  0  0  0  0  0  0  0
   -5.1962    6.0000    0.0000 C   0  0  0  0  0  0  0  0  0  0  0  0
   -6.4952    5.2500    0.0000 C   0  0  0  0  0  0  0  0  0  0  0  0
   -6.4952    3.7500    0.0000 O   0  0  0  0  0  0  0  0  0  0  0  0
   -7.7942    6.0000    0.0000 O   0  0  0  0  0  0  0  0  0  0  0  0
  1  2  1  0
  2  3  2  0
  2  4  1  0
  4  5  1  0
  5  6  1  0
  6  7  1  0
  7  8  1  0
  7  9  2  0
  5 10  1  0
 10 11  1  0
 11 12  1  0
 11 13  2  0
 11 14  1  0
 14 15  1  0
 15 16  1  0
 16 17  1  0
 17 18  1  0
 17 19  2  0
 15 20  1  0
 20 21  1  0
 21 22  1  0
 21 23  2  0
M  END
>  <Name>  (125) 
Bis{[bis(carboxymethyl)amino]methyl}phosphinic acid

>  <logK_La_z=3.0_T=25_I=0.1>  (125) 
13.42

$$$$

     RDKit          2D

 20 20  0  0  0  0  0  0  0  0999 V2000
    3.0000    0.0000    0.0000 O   0  0  0  0  0  0  0  0  0  0  0  0
    1.5000    0.0000    0.0000 C   0  0  0  0  0  0  0  0  0  0  0  0
    0.7500   -1.2990    0.0000 C   0  0  0  0  0  0  0  0  0  0  0  0
   -0.7500   -1.2990    0.0000 C   0  0  0  0  0  0  0  0  0  0  0  0
   -1.5000    0.0000    0.0000 C   0  0  0  0  0  0  0  0  0  0  0  0
   -0.7500    1.2990    0.0000 C   0  0  0  0  0  0  0  0  0  0  0  0
   -1.5000    2.5981    0.0000 Cl  0  0  0  0  0  0  0  0  0  0  0  0
    0.7500    1.2990    0.0000 C   0  0  0  0  0  0  0  0  0  0  0  0
    1.5000    2.5981    0.0000 C   0  0  0  0  0  0  0  0  0  0  0  0
    3.0000    2.5981    0.0000 O   0  0  0  0  0  0  0  0  0  0  0  0
    3.0000    4.8971    0.0000 O   0  0  0  0  0  0  0  0  0  0  0  0
    1.5000    4.8971    0.0000 C   0  0  0  0  0  0  0  0  0  0  0  0
    0.7500    3.5981    0.0000 C   0  0  0  0  0  0  0  0  0  0  0  0
   -0.7500    3.5981    0.0000 C   0  0  0  0  0  0  0  0  0  0  0  0
   -1.5000    4.8971    0.0000 C   0  0  0  0  0  0  0  0  0  0  0  0
   -0.7500    6.1962    0.0000 C   0  0  0  0  0  0  0  0  0  0  0  0
   -1.5000    7.4952    0.0000 Cl  0  0  0  0  0  0  0  0  0  0  0  0
    0.7500    6.1962    0.0000 C   0  0  0  0  0  0  0  0  0  0  0  0
    1.5000    7.4952    0.0000 C   0  0  0  0  0  0  0  0  0  0  0  0
    3.0000    7.4952    0.0000 O   0  0  0  0  0  0  0  0  0  0  0  0
  1  2  1  0
  2  3  2  0
  3  4  1  0
  4  5  2  0
  5  6  1  0
  6  7  1  0
  6  8  2  0
  8  9  1  0
  9 10  2  0
 11 12  1  0
 12 13  2  0
 13 14  1  0
 14 15  2  0
 15 16  1  0
 16 17  1  0
 16 18  2  0
 18 19  1  0
 19 20  2  0
  8  2  1  0
 18 12  1  0
M  END
>  <Name>  (126) 
2-Hydroxy-6-chlorobenzaldehyde (6-chlorosalicylaldehyde)

>  <logK_La_z=3.0_T=25_I=0.1>  (126) 
4.08

$$$$

     RDKit          2D

 10  9  0  0  0  0  0  0  0  0999 V2000
    0.0000    0.0000    0.0000 C   0  0  0  0  0  0  0  0  0  0  0  0
    1.2990    0.7500    0.0000 C   0  0  0  0  0  0  0  0  0  0  0  0
    2.5981   -0.0000    0.0000 C   0  0  0  0  0  0  0  0  0  0  0  0
    1.2990    2.2500    0.0000 C   0  0  0  0  0  0  0  0  0  0  0  0
   -0.2010    2.2500    0.0000 C   0  0  0  0  0  0  0  0  0  0  0  0
    1.2990    3.7500    0.0000 O   0  0  0  0  0  0  0  0  0  0  0  0
    2.7990    2.2500    0.0000 C   0  0  0  0  0  0  0  0  0  0  0  0
    3.5490    3.5490    0.0000 C   0  0  0  0  0  0  0  0  0  0  0  0
    5.0490    3.5490    0.0000 O   0  0  0  0  0  0  0  0  0  0  0  0
    2.7990    4.8481    0.0000 O   0  0  0  0  0  0  0  0  0  0  0  0
  1  2  1  0
  2  3  1  0
  2  4  1  0
  4  5  1  0
  4  6  1  0
  4  7  1  0
  7  8  1  0
  8  9  1  0
  8 10  2  0
M  END
>  <Name>  (127) 
3-Hydroxy-3,4-dimethyl-pentanoic acid

>  <logK_La_z=3.0_T=25_I=0.1>  (127) 
1.75

$$$$

     RDKit          2D

 11 11  0  0  0  0  0  0  0  0999 V2000
    3.0000    0.0000    0.0000 C   0  0  0  0  0  0  0  0  0  0  0  0
    1.5000    0.0000    0.0000 C   0  0  0  0  0  0  0  0  0  0  0  0
    0.7500   -1.2990    0.0000 C   0  0  0  0  0  0  0  0  0  0  0  0
    1.5000   -2.5981    0.0000 O   0  0  0  0  0  0  0  0  0  0  0  0
   -0.7500   -1.2990    0.0000 C   0  0  0  0  0  0  0  0  0  0  0  0
   -1.5000   -2.5981    0.0000 O   0  0  0  0  0  0  0  0  0  0  0  0
   -1.5000    0.0000    0.0000 C   0  0  0  0  0  0  0  0  0  0  0  0
   -0.7500    1.2990    0.0000 C   0  0  0  0  0  0  0  0  0  0  0  0
   -1.5000    2.5981    0.0000 C   0  0  0  0  0  0  0  0  0  0  0  0
   -0.7500    3.8971    0.0000 O   0  0  0  0  0  0  0  0  0  0  0  0
    0.7500    1.2990    0.0000 O   0  0  0  0  0  0  0  0  0  0  0  0
  1  2  1  0
  2  3  2  0
  3  4  1  0
  3  5  1  0
  5  6  2  0
  5  7  1  0
  7  8  2  0
  8  9  1  0
  9 10  1  0
  8 11  1  0
 11  2  1  0
M  END
>  <Name>  (128) 
3-Hydroxy-6-(hydroxymethyl)-2-methyl-4H-pyran-4-one

>  <logK_La_z=3.0_T=25_I=0.1>  (128) 
5.5

$$$$

     RDKit          2D

  5  4  0  0  0  0  0  0  0  0999 V2000
    2.5981   -0.0000    0.0000 O   0  0  0  0  0  0  0  0  0  0  0  0
    1.2990    0.7500    0.0000 C   0  0  0  0  0  0  0  0  0  0  0  0
    1.2990    2.2500    0.0000 O   0  0  0  0  0  0  0  0  0  0  0  0
    0.0000    0.0000    0.0000 C   0  0  0  0  0  0  0  0  0  0  0  0
   -1.2990    0.7500    0.0000 S   0  0  0  0  0  0  0  0  0  0  0  0
  1  2  1  0
  2  3  2  0
  2  4  1  0
  4  5  1  0
M  END
>  <Name>  (129) 
Mercaptoethanoic acid

>  <logK_La_z=3.0_T=25_I=0.1>  (129) 
3.49

$$$$

     RDKit          2D

 26 28  0  0  0  0  0  0  0  0999 V2000
    5.2500   -2.7990    0.0000 C   0  0  0  0  0  0  0  0  0  0  0  0
    5.2500   -1.2990    0.0000 C   0  0  0  0  0  0  0  0  0  0  0  0
    5.2500    0.2010    0.0000 C   0  0  0  0  0  0  0  0  0  0  0  0
    6.7500   -1.2990    0.0000 C   0  0  0  0  0  0  0  0  0  0  0  0
    3.7500   -1.2990    0.0000 N   0  0  0  0  0  0  0  0  0  0  0  0
    3.0000    0.0000    0.0000 C   0  0  0  0  0  0  0  0  0  0  0  0
    1.5000    0.0000    0.0000 C   0  0  0  0  0  0  0  0  0  0  0  0
    0.7500   -1.2990    0.0000 C   0  0  0  0  0  0  0  0  0  0  0  0
   -0.7500   -1.2990    0.0000 C   0  0  0  0  0  0  0  0  0  0  0  0
   -1.5000    0.0000    0.0000 C   0  0  0  0  0  0  0  0  0  0  0  0
   -3.0000    0.0000    0.0000 C   0  0  0  0  0  0  0  0  0  0  0  0
   -3.7500    1.2990    0.0000 C   0  0  0  0  0  0  0  0  0  0  0  0
   -3.0000    2.5981    0.0000 C   0  0  0  0  0  0  0  0  0  0  0  0
   -3.7500    3.8971    0.0000 C   0  0  0  0  0  0  0  0  0  0  0  0
   -3.0000    5.1962    0.0000 C   0  0  0  0  0  0  0  0  0  0  0  0
   -1.5000    5.1962    0.0000 C   0  0  0  0  0  0  0  0  0  0  0  0
   -0.7500    6.4952    0.0000 C   0  0  0  0  0  0  0  0  0  0  0  0
    0.7500    6.4952    0.0000 N   0  0  0  0  0  0  0  0  0  0  0  0
    1.5000    7.7942    0.0000 C   0  0  0  0  0  0  0  0  0  0  0  0
    2.7990    7.0442    0.0000 C   0  0  0  0  0  0  0  0  0  0  0  0
    0.2010    8.5442    0.0000 C   0  0  0  0  0  0  0  0  0  0  0  0
    2.2500    9.0933    0.0000 C   0  0  0  0  0  0  0  0  0  0  0  0
   -0.7500    3.8971    0.0000 N   0  0  0  0  0  0  0  0  0  0  0  0
   -1.5000    2.5981    0.0000 C   0  0  0  0  0  0  0  0  0  0  0  0
   -0.7500    1.2990    0.0000 C   0  0  0  0  0  0  0  0  0  0  0  0
    0.7500    1.2990    0.0000 N   0  0  0  0  0  0  0  0  0  0  0  0
  1  2  1  0
  2  3  1  0
  2  4  1  0
  2  5  1  0
  5  6  1  0
  6  7  1  0
  7  8  2  0
  8  9  1  0
  9 10  2  0
 10 11  1  0
 11 12  2  0
 12 13  1  0
 13 14  2  0
 14 15  1  0
 15 16  2  0
 16 17  1  0
 17 18  1  0
 18 19  1  0
 19 20  1  0
 19 21  1  0
 19 22  1  0
 16 23  1  0
 23 24  2  0
 24 25  1  0
 25 26  2  0
 26  7  1  0
 25 10  1  0
 24 13  1  0
M  END
>  <Name>  (130) 
N,N'-Bis(1,1-dimethylethyl)-1,10-phenanthroline-2,9-dimethanamine

>  <logK_La_z=3.0_T=25_I=0.1>  (130) 
6.65

$$$$

     RDKit          2D

  7  6  0  0  0  0  0  0  0  0999 V2000
    0.0000    0.0000    0.0000 C   0  0  0  0  0  0  0  0  0  0  0  0
    1.2990    0.7500    0.0000 C   0  0  0  0  0  0  0  0  0  0  0  0
    1.2990    2.2500    0.0000 O   0  0  0  0  0  0  0  0  0  0  0  0
    2.5981   -0.0000    0.0000 C   0  0  0  0  0  0  0  0  0  0  0  0
    3.8971    0.7500    0.0000 C   0  0  0  0  0  0  0  0  0  0  0  0
    5.1962   -0.0000    0.0000 C   0  0  0  0  0  0  0  0  0  0  0  0
    3.8971    2.2500    0.0000 O   0  0  0  0  0  0  0  0  0  0  0  0
  1  2  1  0
  2  3  2  0
  2  4  1  0
  4  5  1  0
  5  6  1  0
  5  7  2  0
M  END
>  <Name>  (131) 
Pentane-2,4-dione

>  <logK_La_z=3.0_T=25_I=0.1>  (131) 
4.906666666666666

>  <logK_La_z=3.0_T=25_I=2.0>  (131) 
4.71

>  <logK_La_z=3.0_T=30_I=0.0>  (131) 
5.1

$$$$

     RDKit          2D

 20 20  0  0  0  0  0  0  0  0999 V2000
    6.0000   -2.5981    0.0000 C   0  0  0  0  0  0  0  0  0  0  0  0
    5.2500   -1.2990    0.0000 C   0  0  0  0  0  0  0  0  0  0  0  0
    3.7500   -1.2990    0.0000 C   0  0  0  0  0  0  0  0  0  0  0  0
    3.0000    0.0000    0.0000 N   0  0  0  0  0  0  0  0  0  0  0  0
    3.7500    1.2990    0.0000 C   0  0  0  0  0  0  0  0  0  0  0  0
    5.2500    1.2990    0.0000 C   0  0  0  0  0  0  0  0  0  0  0  0
    6.0000    2.5981    0.0000 C   0  0  0  0  0  0  0  0  0  0  0  0
    7.5000    2.5981    0.0000 S   0  0  0  0  0  6  0  0  0  0  0  0
    9.0000    2.5981    0.0000 O   0  0  0  0  0  0  0  0  0  0  0  0
    7.5000    4.0981    0.0000 O   0  0  0  0  0  0  0  0  0  0  0  0
    7.5000    1.0981    0.0000 O   0  0  0  0  0  0  0  0  0  0  0  0
    1.5000    0.0000    0.0000 C   0  0  0  0  0  0  0  0  0  0  0  0
    0.7500   -1.2990    0.0000 C   0  0  0  0  0  0  0  0  0  0  0  0
   -0.7500   -1.2990    0.0000 C   0  0  0  0  0  0  0  0  0  0  0  0
   -1.5000    0.0000    0.0000 C   0  0  0  0  0  0  0  0  0  0  0  0
   -3.0000    0.0000    0.0000 N   0  0  0  0  0  0  0  0  0  0  0  0
   -3.7500    1.2990    0.0000 O   0  0  0  0  0  0  0  0  0  0  0  0
   -0.7500    1.2990    0.0000 C   0  0  0  0  0  0  0  0  0  0  0  0
   -1.5000    2.5981    0.0000 O   0  0  0  0  0  0  0  0  0  0  0  0
    0.7500    1.2990    0.0000 C   0  0  0  0  0  0  0  0  0  0  0  0
  1  2  1  0
  2  3  1  0
  3  4  1  0
  4  5  1  0
  5  6  1  0
  6  7  1  0
  7  8  1  0
  8  9  1  0
  8 10  2  0
  8 11  2  0
  4 12  1  0
 12 13  2  0
 13 14  1  0
 14 15  2  0
 15 16  1  0
 16 17  2  0
 15 18  1  0
 18 19  1  0
 18 20  2  0
 20 12  1  0
M  END
>  <Name>  (132) 
2-Nitroso-5-(N-propyl-3-sulfopropylamino)phenol

>  <logK_La_z=3.0_T=25_I=0.1>  (132) 
5.09

$$$$

     RDKit          2D

 13 12  0  0  0  0  0  0  0  0999 V2000
   -2.5981    0.0000    0.0000 O   0  0  0  0  0  0  0  0  0  0  0  0
   -1.2990    0.7500    0.0000 C   0  0  0  0  0  0  0  0  0  0  0  0
   -1.2990    2.2500    0.0000 O   0  0  0  0  0  0  0  0  0  0  0  0
    0.0000    0.0000    0.0000 C   0  0  0  0  0  0  0  0  0  0  0  0
    1.2990    0.7500    0.0000 C   0  0  0  0  0  0  0  0  0  0  0  0
    0.5490    2.0490    0.0000 O   0  0  0  0  0  0  0  0  0  0  0  0
    2.5981    1.5000    0.0000 C   0  0  0  0  0  0  0  0  0  0  0  0
    2.5981    3.0000    0.0000 C   0  0  0  0  0  0  0  0  0  0  0  0
    3.8971    3.7500    0.0000 O   0  0  0  0  0  0  0  0  0  0  0  0
    1.2990    3.7500    0.0000 O   0  0  0  0  0  0  0  0  0  0  0  0
    2.0490   -0.5490    0.0000 C   0  0  0  0  0  0  0  0  0  0  0  0
    3.5490   -0.5490    0.0000 O   0  0  0  0  0  0  0  0  0  0  0  0
    1.2990   -1.8481    0.0000 O   0  0  0  0  0  0  0  0  0  0  0  0
  1  2  1  0
  2  3  2  0
  2  4  1  0
  4  5  1  0
  5  6  1  0
  5  7  1  0
  7  8  1  0
  8  9  1  0
  8 10  2  0
  5 11  1  0
 11 12  1  0
 11 13  2  0
M  END
>  <Name>  (133) 
2-Hydroxypropane-1,2,3-tricarboxylic acid

>  <logK_La_z=3.0_T=25_I=0.1>  (133) 
7.169999999999999

>  <logK_La_z=3.0_T=20_I=1.0>  (133) 
6.65

>  <logK_La_z=3.0_T=25_I=0.0>  (133) 
9.18

$$$$

     RDKit          2D

 29 28  0  0  0  0  0  0  0  0999 V2000
    0.0000    0.0000    0.0000 C   0  0  0  0  0  0  0  0  0  0  0  0
    1.2990    0.7500    0.0000 O   0  0  0  0  0  0  0  0  0  0  0  0
    2.5981   -0.0000    0.0000 C   0  0  0  0  0  0  0  0  0  0  0  0
    3.8971    0.7500    0.0000 C   0  0  0  0  0  0  0  0  0  0  0  0
    5.1962   -0.0000    0.0000 N   0  0  0  0  0  0  0  0  0  0  0  0
    6.4952    0.7500    0.0000 C   0  0  0  0  0  0  0  0  0  0  0  0
    6.4952    2.2500    0.0000 O   0  0  0  0  0  0  0  0  0  0  0  0
    7.7942   -0.0000    0.0000 C   0  0  0  0  0  0  0  0  0  0  0  0
    9.0933    0.7500    0.0000 C   0  0  0  0  0  0  0  0  0  0  0  0
   10.3923   -0.0000    0.0000 C   0  0  0  0  0  0  0  0  0  0  0  0
   11.6913    0.7500    0.0000 O   0  0  0  0  0  0  0  0  0  0  0  0
    7.7942   -1.5000    0.0000 N   0  0  0  0  0  0  0  0  0  0  0  0
    9.0933   -2.2500    0.0000 C   0  0  0  0  0  0  0  0  0  0  0  0
    9.0933   -3.7500    0.0000 C   0  0  0  0  0  0  0  0  0  0  0  0
   10.3923   -4.5000    0.0000 N   0  0  0  0  0  0  0  0  0  0  0  0
   10.3923   -6.0000    0.0000 C   0  0  0  0  0  0  0  0  0  0  0  0
   11.6913   -6.7500    0.0000 C   0  0  0  0  0  0  0  0  0  0  0  0
   11.6913   -8.2500    0.0000 N   0  0  0  0  0  0  0  0  0  0  0  0
   11.6913   -3.7500    0.0000 C   0  0  0  0  0  0  0  0  0  0  0  0
   12.9904   -4.5000    0.0000 C   0  0  0  0  0  0  0  0  0  0  0  0
   14.2894   -3.7500    0.0000 C   0  0  0  0  0  0  0  0  0  0  0  0
   15.5885   -4.5000    0.0000 O   0  0  0  0  0  0  0  0  0  0  0  0
   11.6913   -2.2500    0.0000 C   0  0  0  0  0  0  0  0  0  0  0  0
   10.3923   -1.5000    0.0000 O   0  0  0  0  0  0  0  0  0  0  0  0
   12.9904   -1.5000    0.0000 N   0  0  0  0  0  0  0  0  0  0  0  0
   12.9904   -0.0000    0.0000 C   0  0  0  0  0  0  0  0  0  0  0  0
   14.2894    0.7500    0.0000 C   0  0  0  0  0  0  0  0  0  0  0  0
   14.2894    2.2500    0.0000 O   0  0  0  0  0  0  0  0  0  0  0  0
   15.5885    3.0000    0.0000 C   0  0  0  0  0  0  0  0  0  0  0  0
  1  2  1  0
  2  3  1  0
  3  4  1  0
  4  5  1  0
  5  6  1  0
  6  7  2  0
  6  8  1  0
  8  9  1  0
  9 10  1  0
 10 11  1  0
  8 12  1  0
 12 13  1  0
 13 14  1  0
 14 15  1  0
 15 16  1  0
 16 17  1  0
 17 18  1  0
 15 19  1  0
 19 20  1  0
 20 21  1  0
 21 22  1  0
 19 23  1  0
 23 24  2  0
 23 25  1  0
 25 26  1  0
 26 27  1  0
 27 28  1  0
 28 29  1  0
M  END
>  <Name>  (134) 
N,N'-Bis(2-hydroxyethyl-2-methoxyethylcarbamoylmethyl)diethylenetriamine

>  <logK_La_z=3.0_T=25_I=0.1>  (134) 
16.78

$$$$

     RDKit          2D

 17 17  0  0  0  0  0  0  0  0999 V2000
    3.0000    0.0000    0.0000 C   0  0  0  0  0  0  0  0  0  0  0  0
    1.5000    0.0000    0.0000 C   0  0  0  0  0  0  0  0  0  0  0  0
    0.7500   -1.2990    0.0000 C   0  0  0  0  0  0  0  0  0  0  0  0
   -0.7500   -1.2990    0.0000 C   0  0  0  0  0  0  0  0  0  0  0  0
   -1.5000    0.0000    0.0000 C   0  0  0  0  0  0  0  0  0  0  0  0
   -0.7500    1.2990    0.0000 C   0  0  0  0  0  0  0  0  0  0  0  0
   -1.5000    2.5981    0.0000 C   0  0  0  0  0  0  0  0  0  0  0  0
   -0.7500    3.8971    0.0000 N   0  0  0  0  0  0  0  0  0  0  0  0
   -1.5000    5.1962    0.0000 C   0  0  0  0  0  0  0  0  0  0  0  0
   -3.0000    5.1962    0.0000 C   0  0  0  0  0  0  0  0  0  0  0  0
   -3.7500    6.4952    0.0000 O   0  0  0  0  0  0  0  0  0  0  0  0
   -3.7500    3.8971    0.0000 O   0  0  0  0  0  0  0  0  0  0  0  0
    0.7500    3.8971    0.0000 C   0  0  0  0  0  0  0  0  0  0  0  0
    1.5000    5.1962    0.0000 C   0  0  0  0  0  0  0  0  0  0  0  0
    3.0000    5.1962    0.0000 O   0  0  0  0  0  0  0  0  0  0  0  0
    0.7500    6.4952    0.0000 O   0  0  0  0  0  0  0  0  0  0  0  0
    0.7500    1.2990    0.0000 N   0  0  0  0  0  0  0  0  0  0  0  0
  1  2  1  0
  2  3  2  0
  3  4  1  0
  4  5  2  0
  5  6  1  0
  6  7  1  0
  7  8  1  0
  8  9  1  0
  9 10  1  0
 10 11  1  0
 10 12  2  0
  8 13  1  0
 13 14  1  0
 14 15  1  0
 14 16  2  0
  6 17  2  0
 17  2  1  0
M  END
>  <Name>  (135) 
N-(6-Methyl-2-pyridylmethyl)iminodiethanoic acid

>  <logK_La_z=3.0_T=25_I=0.1>  (135) 
5.72

$$$$

     RDKit          2D

 16 17  0  0  0  0  0  0  0  0999 V2000
   -3.0000   -2.5981    0.0000 O   0  0  0  0  0  0  0  0  0  0  0  0
   -1.5000   -2.5981    0.0000 C   0  0  0  0  0  0  0  0  0  0  0  0
   -0.7500   -3.8971    0.0000 C   0  0  0  0  0  0  0  0  0  0  0  0
   -1.5000   -5.1962    0.0000 I   0  0  0  0  0  0  0  0  0  0  0  0
    0.7500   -3.8971    0.0000 C   0  0  0  0  0  0  0  0  0  0  0  0
    1.5000   -2.5981    0.0000 C   0  0  0  0  0  0  0  0  0  0  0  0
    0.7500   -1.2990    0.0000 C   0  0  0  0  0  0  0  0  0  0  0  0
    1.5000    0.0000    0.0000 C   0  0  0  0  0  0  0  0  0  0  0  0
    0.7500    1.2990    0.0000 C   0  0  0  0  0  0  0  0  0  0  0  0
   -0.7500    1.2990    0.0000 C   0  0  0  0  0  0  0  0  0  0  0  0
   -1.5000    0.0000    0.0000 N   0  0  0  0  0  0  0  0  0  0  0  0
   -0.7500   -1.2990    0.0000 C   0  0  0  0  0  0  0  0  0  0  0  0
    3.0000   -2.5981    0.0000 S   0  0  0  0  0  6  0  0  0  0  0  0
    4.5000   -2.5981    0.0000 O   0  0  0  0  0  0  0  0  0  0  0  0
    3.0000   -4.0981    0.0000 O   0  0  0  0  0  0  0  0  0  0  0  0
    3.0000   -1.0981    0.0000 O   0  0  0  0  0  0  0  0  0  0  0  0
  1  2  1  0
  2  3  2  0
  3  4  1  0
  3  5  1  0
  5  6  2  0
  6  7  1  0
  7  8  2  0
  8  9  1  0
  9 10  2  0
 10 11  1  0
 11 12  2  0
  6 13  1  0
 13 14  1  0
 13 15  2  0
 13 16  2  0
 12  2  1  0
 12  7  1  0
M  END
>  <Name>  (136) 
7-Iodo-8-hydroxyquinoline-5-sulfonic acid

>  <logK_La_z=3.0_T=25_I=0.1>  (136) 
4.65

$$$$

     RDKit          2D

 16 16  0  0  0  0  0  0  0  0999 V2000
    7.5000    0.0000    0.0000 O   0  0  0  0  0  0  0  0  0  0  0  0
    6.0000    0.0000    0.0000 C   0  0  0  0  0  0  0  0  0  0  0  0
    5.2500    1.2990    0.0000 O   0  0  0  0  0  0  0  0  0  0  0  0
    5.2500   -1.2990    0.0000 C   0  0  0  0  0  0  0  0  0  0  0  0
    3.7500   -1.2990    0.0000 N   0  0  0  0  0  0  0  0  0  0  0  0
    3.0000   -2.5981    0.0000 C   0  0  0  0  0  0  0  0  0  0  0  0
    3.7500   -3.8971    0.0000 C   0  0  0  0  0  0  0  0  0  0  0  0
    5.2500   -3.8971    0.0000 O   0  0  0  0  0  0  0  0  0  0  0  0
    3.0000   -5.1962    0.0000 O   0  0  0  0  0  0  0  0  0  0  0  0
    3.0000    0.0000    0.0000 C   0  0  0  0  0  0  0  0  0  0  0  0
    1.5000    0.0000    0.0000 C   0  0  0  0  0  0  0  0  0  0  0  0
    0.7500   -1.2990    0.0000 C   0  0  0  0  0  0  0  0  0  0  0  0
   -0.7500   -1.2990    0.0000 C   0  0  0  0  0  0  0  0  0  0  0  0
   -1.5000    0.0000    0.0000 C   0  0  0  0  0  0  0  0  0  0  0  0
   -0.7500    1.2990    0.0000 C   0  0  0  0  0  0  0  0  0  0  0  0
    0.7500    1.2990    0.0000 N   0  0  0  0  0  0  0  0  0  0  0  0
  1  2  1  0
  2  3  2  0
  2  4  1  0
  4  5  1  0
  5  6  1  0
  6  7  1  0
  7  8  1  0
  7  9  2  0
  5 10  1  0
 10 11  1  0
 11 12  2  0
 12 13  1  0
 13 14  2  0
 14 15  1  0
 15 16  2  0
 16 11  1  0
M  END
>  <Name>  (137) 
2-Pyridylmethyliminodiethanoic acid

>  <logK_La_z=3.0_T=25_I=0.1>  (137) 
7.8

$$$$

     RDKit          2D

 26 26  0  0  0  0  0  0  0  0999 V2000
    8.0691   -1.2990    0.0000 C   0  0  0  0  0  0  0  0  0  0  0  0
    6.5691   -1.2990    0.0000 C   0  0  0  0  0  0  0  0  0  0  0  0
    5.8191   -2.5981    0.0000 O   0  0  0  0  0  0  0  0  0  0  0  0
    5.8191    0.0000    0.0000 C   0  0  0  0  0  0  0  0  0  0  0  0
    4.3191    0.0000    0.0000 N   0  0  0  0  0  0  0  0  0  0  0  0
    4.0586   -1.4772    0.0000 C   0  0  0  0  0  0  0  0  0  0  0  0
    3.3086   -2.7762    0.0000 C   0  0  0  0  0  0  0  0  0  0  0  0
    2.1595   -3.7404    0.0000 O   0  0  0  0  0  0  0  0  0  0  0  0
    0.7500   -4.2535    0.0000 C   0  0  0  0  0  0  0  0  0  0  0  0
   -0.7500   -4.2535    0.0000 C   0  0  0  0  0  0  0  0  0  0  0  0
   -2.1595   -3.7404    0.0000 O   0  0  0  0  0  0  0  0  0  0  0  0
   -3.3086   -2.7762    0.0000 C   0  0  0  0  0  0  0  0  0  0  0  0
   -4.0586   -1.4772    0.0000 C   0  0  0  0  0  0  0  0  0  0  0  0
   -4.3191    0.0000    0.0000 N   0  0  0  0  0  0  0  0  0  0  0  0
   -4.0586    1.4772    0.0000 C   0  0  0  0  0  0  0  0  0  0  0  0
   -3.3086    2.7762    0.0000 C   0  0  0  0  0  0  0  0  0  0  0  0
   -2.1595    3.7404    0.0000 O   0  0  0  0  0  0  0  0  0  0  0  0
   -0.7500    4.2535    0.0000 C   0  0  0  0  0  0  0  0  0  0  0  0
    0.7500    4.2535    0.0000 C   0  0  0  0  0  0  0  0  0  0  0  0
    2.1595    3.7404    0.0000 O   0  0  0  0  0  0  0  0  0  0  0  0
    3.3086    2.7762    0.0000 C   0  0  0  0  0  0  0  0  0  0  0  0
    4.0586    1.4772    0.0000 C   0  0  0  0  0  0  0  0  0  0  0  0
   -5.8191    0.0000    0.0000 C   0  0  0  0  0  0  0  0  0  0  0  0
   -6.5691    1.2990    0.0000 C   0  0  0  0  0  0  0  0  0  0  0  0
   -8.0691    1.2990    0.0000 C   0  0  0  0  0  0  0  0  0  0  0  0
   -5.8191    2.5981    0.0000 O   0  0  0  0  0  0  0  0  0  0  0  0
  1  2  1  0
  2  3  1  0
  2  4  1  0
  4  5  1  0
  5  6  1  0
  6  7  1  0
  7  8  1  0
  8  9  1  0
  9 10  1  0
 10 11  1  0
 11 12  1  0
 12 13  1  0
 13 14  1  0
 14 15  1  0
 15 16  1  0
 16 17  1  0
 17 18  1  0
 18 19  1  0
 19 20  1  0
 20 21  1  0
 21 22  1  0
 14 23  1  0
 23 24  1  0
 24 25  1  0
 24 26  1  0
 22  5  1  0
M  END
>  <Name>  (138) 
7,16-Di(2-hydroxypropyl)-1,4,10,13-tetraoxa-7,16-diazacyclooctadecane

>  <logK_La_z=3.0_T=25_I=0.1>  (138) 
3.24

$$$$

     RDKit          2D

 32 34  0  0  0  0  0  0  0  0999 V2000
    4.3191    0.0000    0.0000 C   0  0  0  0  0  0  0  0  0  0  0  0
    4.0586   -1.4772    0.0000 C   0  0  0  0  0  0  0  0  0  0  0  0
    3.3086   -2.7762    0.0000 O   0  0  0  0  0  0  0  0  0  0  0  0
    2.1595   -3.7404    0.0000 C   0  0  0  0  0  0  0  0  0  0  0  0
    0.7500   -4.2535    0.0000 C   0  0  0  0  0  0  0  0  0  0  0  0
   -0.7500   -4.2535    0.0000 N   0  0  0  0  0  0  0  0  0  0  0  0
   -2.1595   -3.7404    0.0000 C   0  0  0  0  0  0  0  0  0  0  0  0
   -3.3086   -2.7762    0.0000 C   0  0  0  0  0  0  0  0  0  0  0  0
   -4.0586   -1.4772    0.0000 O   0  0  0  0  0  0  0  0  0  0  0  0
   -4.3191    0.0000    0.0000 C   0  0  0  0  0  0  0  0  0  0  0  0
   -4.0586    1.4772    0.0000 C   0  0  0  0  0  0  0  0  0  0  0  0
   -3.3086    2.7762    0.0000 O   0  0  0  0  0  0  0  0  0  0  0  0
   -2.1595    3.7404    0.0000 C   0  0  0  0  0  0  0  0  0  0  0  0
   -0.7500    4.2535    0.0000 C   0  0  0  0  0  0  0  0  0  0  0  0
    0.7500    4.2535    0.0000 N   0  0  0  0  0  0  0  0  0  0  0  0
    2.1595    3.7404    0.0000 C   0  0  0  0  0  0  0  0  0  0  0  0
    3.3086    2.7762    0.0000 C   0  0  0  0  0  0  0  0  0  0  0  0
    4.0586    1.4772    0.0000 O   0  0  0  0  0  0  0  0  0  0  0  0
    1.0105    5.7307    0.0000 C   0  0  0  0  0  0  0  0  0  0  0  0
    2.4200    6.2437    0.0000 C   0  0  0  0  0  0  0  0  0  0  0  0
    3.5691    5.2795    0.0000 C   0  0  0  0  0  0  0  0  0  0  0  0
    4.9786    5.7926    0.0000 C   0  0  0  0  0  0  0  0  0  0  0  0
    5.2391    7.2698    0.0000 C   0  0  0  0  0  0  0  0  0  0  0  0
    4.0900    8.2339    0.0000 C   0  0  0  0  0  0  0  0  0  0  0  0
    2.6805    7.7209    0.0000 N   0  0  0  0  0  0  0  0  0  0  0  0
   -1.0105   -5.7307    0.0000 C   0  0  0  0  0  0  0  0  0  0  0  0
   -2.4200   -6.2437    0.0000 C   0  0  0  0  0  0  0  0  0  0  0  0
   -3.5691   -5.2795    0.0000 C   0  0  0  0  0  0  0  0  0  0  0  0
   -4.9786   -5.7926    0.0000 C   0  0  0  0  0  0  0  0  0  0  0  0
   -5.2391   -7.2698    0.0000 C   0  0  0  0  0  0  0  0  0  0  0  0
   -4.0900   -8.2339    0.0000 C   0  0  0  0  0  0  0  0  0  0  0  0
   -2.6805   -7.7209    0.0000 N   0  0  0  0  0  0  0  0  0  0  0  0
  1  2  1  0
  2  3  1  0
  3  4  1  0
  4  5  1  0
  5  6  1  0
  6  7  1  0
  7  8  1  0
  8  9  1  0
  9 10  1  0
 10 11  1  0
 11 12  1  0
 12 13  1  0
 13 14  1  0
 14 15  1  0
 15 16  1  0
 16 17  1  0
 17 18  1  0
 15 19  1  0
 19 20  1  0
 20 21  2  0
 21 22  1  0
 22 23  2  0
 23 24  1  0
 24 25  2  0
  6 26  1  0
 26 27  1  0
 27 28  2  0
 28 29  1  0
 29 30  2  0
 30 31  1  0
 31 32  2  0
 18  1  1  0
 25 20  1  0
 32 27  1  0
M  END
>  <Name>  (139) 
7,16-Bis(2-pyridinylmethyl)-1,4,10,13-tetraoxa-7,16-diazacyclooctadecane

>  <logK_La_z=3.0_T=25_I=0.1>  (139) 
3.53

$$$$

     RDKit          2D

 12 11  0  0  0  0  0  0  0  0999 V2000
   -1.2990    0.7500    0.0000 O   0  0  0  0  0  0  0  0  0  0  0  0
    0.0000    0.0000    0.0000 C   0  0  0  0  0  0  0  0  0  0  0  0
    1.2990    0.7500    0.0000 C   0  0  0  0  0  0  0  0  0  0  0  0
    2.5981   -0.0000    0.0000 N   0  0  0  0  0  0  0  0  0  0  0  0
    3.8971    0.7500    0.0000 C   0  0  0  0  0  0  0  0  0  0  0  0
    5.1962   -0.0000    0.0000 C   0  0  0  0  0  0  0  0  0  0  0  0
    6.4952    0.7500    0.0000 O   0  0  0  0  0  0  0  0  0  0  0  0
    5.1962   -1.5000    0.0000 O   0  0  0  0  0  0  0  0  0  0  0  0
    2.5981   -1.5000    0.0000 C   0  0  0  0  0  0  0  0  0  0  0  0
    1.2990   -2.2500    0.0000 C   0  0  0  0  0  0  0  0  0  0  0  0
    1.2990   -3.7500    0.0000 O   0  0  0  0  0  0  0  0  0  0  0  0
    0.0000   -1.5000    0.0000 O   0  0  0  0  0  0  0  0  0  0  0  0
  1  2  1  0
  2  3  1  0
  3  4  1  0
  4  5  1  0
  5  6  1  0
  6  7  1  0
  6  8  2  0
  4  9  1  0
  9 10  1  0
 10 11  1  0
 10 12  2  0
M  END
>  <Name>  (140) 
N-(2-Hydroxyethyl)iminodiethanoic acid

>  <logK_La_z=3.0_T=25_I=0.1>  (140) 
8.0

$$$$

     RDKit          2D

  9  8  0  0  0  0  0  0  0  0999 V2000
   -2.5981    0.0000    0.0000 O   0  0  0  0  0  0  0  0  0  0  0  0
   -1.2990    0.7500    0.0000 C   0  0  0  0  0  0  0  0  0  0  0  0
    0.0000    0.0000    0.0000 C   0  0  0  0  0  0  0  0  0  0  0  0
    1.2990    0.7500    0.0000 C   0  0  0  0  0  0  0  0  0  0  0  0
    2.5981   -0.0000    0.0000 C   0  0  0  0  0  0  0  0  0  0  0  0
    2.5981   -1.5000    0.0000 O   0  0  0  0  0  0  0  0  0  0  0  0
    3.8971    0.7500    0.0000 O   0  0  0  0  0  0  0  0  0  0  0  0
    1.2990    2.2500    0.0000 N   0  0  0  0  0  0  0  0  0  0  0  0
   -1.2990    2.2500    0.0000 O   0  0  0  0  0  0  0  0  0  0  0  0
  1  2  1  0
  2  3  1  0
  3  4  1  0
  4  5  1  0
  5  6  2  0
  5  7  1  0
  4  8  1  6
  2  9  2  0
M  END
>  <Name>  (141) 
L-Aminobutanedioic_acid_(Aspartic_acid)

>  <logK_La_z=3.0_T=30_I=0.1>  (141) 
4.84

$$$$

     RDKit          2D

 12 11  0  0  0  0  0  0  0  0999 V2000
    1.2990    2.2500    0.0000 O   0  0  0  0  0  0  0  0  0  0  0  0
    1.2990    0.7500    0.0000 C   0  0  0  0  0  0  0  0  0  0  0  0
    0.0000    0.0000    0.0000 C   0  0  0  0  0  0  0  0  0  0  0  0
   -1.2990    0.7500    0.0000 N   0  0  0  0  0  0  0  0  0  0  0  0
   -2.5981    0.0000    0.0000 C   0  0  0  0  0  0  0  0  0  0  0  0
   -3.8971    0.7500    0.0000 C   0  0  0  0  0  0  0  0  0  0  0  0
   -5.1962    0.0000    0.0000 N   0  0  0  0  0  0  0  0  0  0  0  0
   -6.4952    0.7500    0.0000 C   0  0  0  0  0  0  0  0  0  0  0  0
   -7.7942    0.0000    0.0000 C   0  0  0  0  0  0  0  0  0  0  0  0
   -9.0933    0.7500    0.0000 O   0  0  0  0  0  0  0  0  0  0  0  0
   -7.7942   -1.5000    0.0000 O   0  0  0  0  0  0  0  0  0  0  0  0
    2.5981   -0.0000    0.0000 O   0  0  0  0  0  0  0  0  0  0  0  0
  1  2  2  0
  2  3  1  0
  3  4  1  0
  4  5  1  0
  5  6  1  0
  6  7  1  0
  7  8  1  0
  8  9  1  0
  9 10  1  0
  9 11  2  0
  2 12  1  0
M  END
>  <Name>  (142) 
Ethylenediiminodiacetic_acid_(EDDA)

>  <logK_La_z=3.0_T=25_I=0.1>  (142) 
7.04

>  <logK_La_z=3.0_T=25_I=1.0>  (142) 
6.95

$$$$

     RDKit          2D

 18 17  0  0  0  0  0  0  0  0999 V2000
    0.0000    0.0000    0.0000 C   0  0  0  0  0  0  0  0  0  0  0  0
    1.2990    0.7500    0.0000 C   0  0  0  0  0  0  0  0  0  0  0  0
    2.5981   -0.0000    0.0000 N   0  0  0  0  0  0  0  0  0  0  0  0
    3.8971    0.7500    0.0000 C   0  0  0  0  0  0  0  0  0  0  0  0
    5.1962   -0.0000    0.0000 C   0  0  0  0  0  0  0  0  0  0  0  0
    5.1962   -1.5000    0.0000 O   0  0  0  0  0  0  0  0  0  0  0  0
    6.4952    0.7500    0.0000 O   0  0  0  0  0  0  0  0  0  0  0  0
    3.8971    2.2500    0.0000 C   0  0  0  0  0  0  0  0  0  0  0  0
    2.5981    3.0000    0.0000 O   0  0  0  0  0  0  0  0  0  0  0  0
    5.1962    3.0000    0.0000 O   0  0  0  0  0  0  0  0  0  0  0  0
   -1.2990    0.7500    0.0000 N   0  0  0  0  0  0  0  0  0  0  0  0
   -2.5981    0.0000    0.0000 C   0  0  0  0  0  0  0  0  0  0  0  0
   -3.8971    0.7500    0.0000 C   0  0  0  0  0  0  0  0  0  0  0  0
   -3.8971    2.2500    0.0000 O   0  0  0  0  0  0  0  0  0  0  0  0
   -5.1962    0.0000    0.0000 O   0  0  0  0  0  0  0  0  0  0  0  0
   -2.5981   -1.5000    0.0000 C   0  0  0  0  0  0  0  0  0  0  0  0
   -1.2990   -2.2500    0.0000 O   0  0  0  0  0  0  0  0  0  0  0  0
   -3.8971   -2.2500    0.0000 O   0  0  0  0  0  0  0  0  0  0  0  0
  1  2  1  0
  2  3  1  0
  3  4  1  0
  4  5  1  0
  5  6  2  0
  5  7  1  0
  4  8  1  0
  8  9  2  0
  8 10  1  0
  1 11  1  0
 11 12  1  0
 12 13  1  0
 13 14  2  0
 13 15  1  0
 12 16  1  0
 16 17  2  0
 16 18  1  0
M  END
>  <Name>  (143) 
Ethylenediiminodipropanedioic_acid_(EDDM)

>  <logK_La_z=3.0_T=20_I=0.1>  (143) 
10.98

$$$$

     RDKit          2D

 20 19  0  0  0  0  0  0  0  0999 V2000
   -2.5981    0.0000    0.0000 O   0  0  0  0  0  0  0  0  0  0  0  0
   -1.2990    0.7500    0.0000 C   0  0  0  0  0  0  0  0  0  0  0  0
   -1.2990    2.2500    0.0000 O   0  0  0  0  0  0  0  0  0  0  0  0
    0.0000    0.0000    0.0000 C   0  0  0  0  0  0  0  0  0  0  0  0
    1.2990    0.7500    0.0000 C   0  0  0  0  0  0  0  0  0  0  0  0
    1.2990    2.2500    0.0000 N   0  0  0  0  0  0  0  0  0  0  0  0
    2.5981    3.0000    0.0000 C   0  0  0  0  0  0  0  0  0  0  0  0
    2.5981    4.5000    0.0000 C   0  0  0  0  0  0  0  0  0  0  0  0
    3.8971    5.2500    0.0000 N   0  0  0  0  0  0  0  0  0  0  0  0
    3.8971    6.7500    0.0000 C   0  0  0  0  0  0  0  0  0  0  0  0
    5.1962    7.5000    0.0000 C   0  0  0  0  0  0  0  0  0  0  0  0
    5.1962    9.0000    0.0000 C   0  0  0  0  0  0  0  0  0  0  0  0
    6.4952    9.7500    0.0000 O   0  0  0  0  0  0  0  0  0  0  0  0
    3.8971    9.7500    0.0000 O   0  0  0  0  0  0  0  0  0  0  0  0
    2.5981    7.5000    0.0000 C   0  0  0  0  0  0  0  0  0  0  0  0
    2.5981    9.0000    0.0000 O   0  0  0  0  0  0  0  0  0  0  0  0
    1.2990    6.7500    0.0000 O   0  0  0  0  0  0  0  0  0  0  0  0
    2.5981   -0.0000    0.0000 C   0  0  0  0  0  0  0  0  0  0  0  0
    3.8971    0.7500    0.0000 O   0  0  0  0  0  0  0  0  0  0  0  0
    2.5981   -1.5000    0.0000 O   0  0  0  0  0  0  0  0  0  0  0  0
  1  2  1  0
  2  3  2  0
  2  4  1  0
  4  5  1  0
  5  6  1  0
  6  7  1  0
  7  8  1  0
  8  9  1  0
  9 10  1  0
 10 11  1  0
 11 12  1  0
 12 13  1  0
 12 14  2  0
 10 15  1  0
 15 16  1  0
 15 17  2  0
  5 18  1  0
 18 19  1  0
 18 20  2  0
M  END
>  <Name>  (144) 
Ethylenediiminodibutanedioic_acid_(EDDS)

>  <logK_La_z=3.0_T=25_I=0.1>  (144) 
11.98

>  <logK_La_z=3.0_T=20_I=0.1>  (144) 
12.07

$$$$

     RDKit          2D

 22 21  0  0  0  0  0  0  0  0999 V2000
    1.2990    2.2500    0.0000 O   0  0  0  0  0  0  0  0  0  0  0  0
    1.2990    0.7500    0.0000 C   0  0  0  0  0  0  0  0  0  0  0  0
    0.0000    0.0000    0.0000 C   0  0  0  0  0  0  0  0  0  0  0  0
   -1.2990    0.7500    0.0000 N   0  0  0  0  0  0  0  0  0  0  0  0
   -2.5981    0.0000    0.0000 C   0  0  0  0  0  0  0  0  0  0  0  0
   -2.5981   -1.5000    0.0000 C   0  0  0  0  0  0  0  0  0  0  0  0
   -1.2990   -2.2500    0.0000 O   0  0  0  0  0  0  0  0  0  0  0  0
   -3.8971   -2.2500    0.0000 O   0  0  0  0  0  0  0  0  0  0  0  0
   -3.8971    0.7500    0.0000 C   0  0  0  0  0  0  0  0  0  0  0  0
   -5.1962    0.0000    0.0000 C   0  0  0  0  0  0  0  0  0  0  0  0
   -5.1962   -1.5000    0.0000 O   0  0  0  0  0  0  0  0  0  0  0  0
   -6.4952    0.7500    0.0000 O   0  0  0  0  0  0  0  0  0  0  0  0
    2.5981   -0.0000    0.0000 C   0  0  0  0  0  0  0  0  0  0  0  0
    3.8971    0.7500    0.0000 N   0  0  0  0  0  0  0  0  0  0  0  0
    5.1962   -0.0000    0.0000 C   0  0  0  0  0  0  0  0  0  0  0  0
    5.1962   -1.5000    0.0000 C   0  0  0  0  0  0  0  0  0  0  0  0
    3.8971   -2.2500    0.0000 O   0  0  0  0  0  0  0  0  0  0  0  0
    6.4952   -2.2500    0.0000 O   0  0  0  0  0  0  0  0  0  0  0  0
    6.4952    0.7500    0.0000 C   0  0  0  0  0  0  0  0  0  0  0  0
    7.7942   -0.0000    0.0000 C   0  0  0  0  0  0  0  0  0  0  0  0
    7.7942   -1.5000    0.0000 O   0  0  0  0  0  0  0  0  0  0  0  0
    9.0933    0.7500    0.0000 O   0  0  0  0  0  0  0  0  0  0  0  0
  1  2  1  0
  2  3  1  0
  3  4  1  0
  4  5  1  0
  5  6  1  0
  6  7  2  0
  6  8  1  0
  5  9  1  0
  9 10  1  0
 10 11  2  0
 10 12  1  0
  2 13  1  0
 13 14  1  0
 14 15  1  0
 15 16  1  0
 16 17  2  0
 16 18  1  0
 15 19  1  0
 19 20  1  0
 20 21  2  0
 20 22  1  0
M  END
>  <Name>  (145) 
2-Hydroxy-1,3-propylenediiminodibutanedioic_acid_(rac-_or_meso-isomer_not_stated)

>  <logK_La_z=3.0_T=25_I=0.1>  (145) 
9.29

$$$$

     RDKit          2D

 12 11  0  0  0  0  0  0  0  0999 V2000
    3.8971    5.2500    0.0000 O   0  0  0  0  0  0  0  0  0  0  0  0
    2.5981    4.5000    0.0000 C   0  0  0  0  0  0  0  0  0  0  0  0
    2.5981    3.0000    0.0000 C   0  0  0  0  0  0  0  0  0  0  0  0
    1.2990    2.2500    0.0000 N   0  0  0  0  0  0  0  0  0  0  0  0
    1.2990    0.7500    0.0000 C   0  0  0  0  0  0  0  0  0  0  0  0
    0.0000    0.0000    0.0000 C   0  0  0  0  0  0  0  0  0  0  0  0
    2.5981   -0.0000    0.0000 C   0  0  0  0  0  0  0  0  0  0  0  0
    2.5981   -1.5000    0.0000 O   0  0  0  0  0  0  0  0  0  0  0  0
    3.8971    0.7500    0.0000 O   0  0  0  0  0  0  0  0  0  0  0  0
   -0.0000    3.0000    0.0000 C   0  0  0  0  0  0  0  0  0  0  0  0
   -0.0000    4.5000    0.0000 C   0  0  0  0  0  0  0  0  0  0  0  0
   -1.2990    5.2500    0.0000 O   0  0  0  0  0  0  0  0  0  0  0  0
  1  2  1  0
  2  3  1  0
  3  4  1  0
  4  5  1  0
  5  6  1  0
  5  7  1  0
  7  8  2  0
  7  9  1  0
  4 10  1  0
 10 11  1  0
 11 12  1  0
M  END
>  <Name>  (146) 
DL-N,N-Bis(2-hydroxyethyl)alanine

>  <logK_La_z=3.0_T=20_I=0.1>  (146) 
4.49

$$$$

     RDKit          2D

 28 29  0  0  0  0  0  0  0  0999 V2000
    5.2500   -9.0933    0.0000 O   0  0  0  0  0  0  0  0  0  0  0  0
    3.7500   -9.0933    0.0000 C   0  0  0  0  0  0  0  0  0  0  0  0
    3.0000  -10.3923    0.0000 O   0  0  0  0  0  0  0  0  0  0  0  0
    3.0000   -7.7942    0.0000 C   0  0  0  0  0  0  0  0  0  0  0  0
    1.5000   -7.7942    0.0000 N   0  0  0  0  0  0  0  0  0  0  0  0
    0.7500   -6.4952    0.0000 C   0  0  0  0  0  0  0  0  0  0  0  0
    1.5000   -5.1962    0.0000 C   0  0  0  0  0  0  0  0  0  0  0  0
    0.7500   -3.8971    0.0000 N   0  0  0  0  0  0  0  0  0  0  0  0
   -0.7500   -3.8971    0.0000 C   0  0  0  0  0  0  0  0  0  0  0  0
   -1.5000   -5.1962    0.0000 C   0  0  0  0  0  0  0  0  0  0  0  0
   -3.0000   -5.1962    0.0000 O   0  0  0  0  0  0  0  0  0  0  0  0
   -0.7500   -6.4952    0.0000 O   0  0  0  0  0  0  0  0  0  0  0  0
    1.5000   -2.5981    0.0000 C   0  0  0  0  0  0  0  0  0  0  0  0
    0.7500   -1.2990    0.0000 C   0  0  0  0  0  0  0  0  0  0  0  0
    1.5000    0.0000    0.0000 C   0  0  0  0  0  0  0  0  0  0  0  0
    0.7500    1.2990    0.0000 C   0  0  0  0  0  0  0  0  0  0  0  0
   -0.7500    1.2990    0.0000 C   0  0  0  0  0  0  0  0  0  0  0  0
   -1.5000    0.0000    0.0000 C   0  0  0  0  0  0  0  0  0  0  0  0
   -0.7500   -1.2990    0.0000 C   0  0  0  0  0  0  0  0  0  0  0  0
   -1.5000   -2.5981    0.0000 O   0  0  0  0  0  0  0  0  0  0  0  0
    0.7500   -9.0933    0.0000 C   0  0  0  0  0  0  0  0  0  0  0  0
   -0.7500   -9.0933    0.0000 C   0  0  0  0  0  0  0  0  0  0  0  0
   -1.5000   -7.7942    0.0000 C   0  0  0  0  0  0  0  0  0  0  0  0
   -3.0000   -7.7942    0.0000 C   0  0  0  0  0  0  0  0  0  0  0  0
   -3.7500   -9.0933    0.0000 C   0  0  0  0  0  0  0  0  0  0  0  0
   -3.0000  -10.3923    0.0000 C   0  0  0  0  0  0  0  0  0  0  0  0
   -1.5000  -10.3923    0.0000 C   0  0  0  0  0  0  0  0  0  0  0  0
   -0.7500  -11.6913    0.0000 O   0  0  0  0  0  0  0  0  0  0  0  0
  1  2  1  0
  2  3  2  0
  2  4  1  0
  4  5  1  0
  5  6  1  0
  6  7  1  0
  7  8  1  0
  8  9  1  0
  9 10  1  0
 10 11  1  0
 10 12  2  0
  8 13  1  0
 13 14  1  0
 14 15  2  0
 15 16  1  0
 16 17  2  0
 17 18  1  0
 18 19  2  0
 19 20  1  0
  5 21  1  0
 21 22  1  0
 22 23  2  0
 23 24  1  0
 24 25  2  0
 25 26  1  0
 26 27  2  0
 27 28  1  0
 19 14  1  0
 27 22  1  0
M  END
>  <Name>  (147) 
N,N'-Bis(2-hydroxybenzyl)ethylenedinitrilodiacetic_acid_(HBED)

>  <logK_La_z=3.0_T=20_I=0.1>  (147) 
16.42

$$$$

     RDKit          2D

 29 29  0  0  0  0  0  0  0  0999 V2000
    5.1073    0.0000    0.0000 O   0  0  0  0  0  0  0  0  0  0  0  0
    3.6073    0.0000    0.0000 C   0  0  0  0  0  0  0  0  0  0  0  0
    3.2954    1.4672    0.0000 C   0  0  0  0  0  0  0  0  0  0  0  0
    2.4138    2.6807    0.0000 N   0  0  0  0  0  0  0  0  0  0  0  0
    1.1147    3.4307    0.0000 C   0  0  0  0  0  0  0  0  0  0  0  0
   -0.3771    3.5875    0.0000 C   0  0  0  0  0  0  0  0  0  0  0  0
   -1.8037    3.1240    0.0000 N   0  0  0  0  0  0  0  0  0  0  0  0
   -2.9184    2.1203    0.0000 C   0  0  0  0  0  0  0  0  0  0  0  0
   -3.5285    0.7500    0.0000 C   0  0  0  0  0  0  0  0  0  0  0  0
   -3.5285   -0.7500    0.0000 N   0  0  0  0  0  0  0  0  0  0  0  0
   -2.9184   -2.1203    0.0000 C   0  0  0  0  0  0  0  0  0  0  0  0
   -1.8037   -3.1240    0.0000 C   0  0  0  0  0  0  0  0  0  0  0  0
   -0.3771   -3.5875    0.0000 N   0  0  0  0  0  0  0  0  0  0  0  0
    1.1147   -3.4307    0.0000 C   0  0  0  0  0  0  0  0  0  0  0  0
    2.4138   -2.6807    0.0000 C   0  0  0  0  0  0  0  0  0  0  0  0
    3.2954   -1.4672    0.0000 N   0  0  0  0  0  0  0  0  0  0  0  0
   -2.5537   -4.4231    0.0000 O   0  0  0  0  0  0  0  0  0  0  0  0
   -4.9957   -1.0619    0.0000 C   0  0  0  0  0  0  0  0  0  0  0  0
   -5.9994    0.0528    0.0000 C   0  0  0  0  0  0  0  0  0  0  0  0
   -5.5359    1.4794    0.0000 O   0  0  0  0  0  0  0  0  0  0  0  0
   -7.4666   -0.2590    0.0000 O   0  0  0  0  0  0  0  0  0  0  0  0
   -2.5537    4.4231    0.0000 C   0  0  0  0  0  0  0  0  0  0  0  0
   -1.8037    5.7221    0.0000 C   0  0  0  0  0  0  0  0  0  0  0  0
   -0.3037    5.7221    0.0000 O   0  0  0  0  0  0  0  0  0  0  0  0
   -2.5537    7.0211    0.0000 O   0  0  0  0  0  0  0  0  0  0  0  0
    3.4175    3.7955    0.0000 C   0  0  0  0  0  0  0  0  0  0  0  0
    4.8847    3.4836    0.0000 C   0  0  0  0  0  0  0  0  0  0  0  0
    5.3482    2.0570    0.0000 O   0  0  0  0  0  0  0  0  0  0  0  0
    5.8884    4.5983    0.0000 O   0  0  0  0  0  0  0  0  0  0  0  0
  1  2  2  0
  2  3  1  0
  3  4  1  0
  4  5  1  0
  5  6  1  0
  6  7  1  0
  7  8  1  0
  8  9  1  0
  9 10  1  0
 10 11  1  0
 11 12  1  0
 12 13  1  0
 13 14  1  0
 14 15  1  0
 15 16  1  0
 12 17  2  0
 10 18  1  0
 18 19  1  0
 19 20  2  0
 19 21  1  0
  7 22  1  0
 22 23  1  0
 23 24  2  0
 23 25  1  0
  4 26  1  0
 26 27  1  0
 27 28  2  0
 27 29  1  0
 16  2  1  0
M  END
>  <Name>  (148) 
9,14-Dioxo-1,4,7,10,13-pentaazacyclopentadecane-1,4,7-triacetic_acid

>  <logK_La_z=3.0_T=25_I=0.1>  (148) 
9.7

$$$$

     RDKit          2D

 35 35  0  0  0  0  0  0  0  0999 V2000
    6.5321    0.0000    0.0000 O   0  0  0  0  0  0  0  0  0  0  0  0
    5.0321    0.0000    0.0000 C   0  0  0  0  0  0  0  0  0  0  0  0
    4.8086    1.4832    0.0000 C   0  0  0  0  0  0  0  0  0  0  0  0
    4.1577    2.8347    0.0000 N   0  0  0  0  0  0  0  0  0  0  0  0
    3.1375    3.9343    0.0000 C   0  0  0  0  0  0  0  0  0  0  0  0
    1.8384    4.6843    0.0000 C   0  0  0  0  0  0  0  0  0  0  0  0
    0.3761    5.0181    0.0000 N   0  0  0  0  0  0  0  0  0  0  0  0
   -1.1198    4.9060    0.0000 C   0  0  0  0  0  0  0  0  0  0  0  0
   -2.5161    4.3580    0.0000 C   0  0  0  0  0  0  0  0  0  0  0  0
   -3.6888    3.4227    0.0000 N   0  0  0  0  0  0  0  0  0  0  0  0
   -4.5338    2.1834    0.0000 C   0  0  0  0  0  0  0  0  0  0  0  0
   -4.9759    0.7500    0.0000 C   0  0  0  0  0  0  0  0  0  0  0  0
   -4.9759   -0.7500    0.0000 N   0  0  0  0  0  0  0  0  0  0  0  0
   -4.5338   -2.1834    0.0000 C   0  0  0  0  0  0  0  0  0  0  0  0
   -3.6888   -3.4227    0.0000 C   0  0  0  0  0  0  0  0  0  0  0  0
   -2.5161   -4.3580    0.0000 O   0  0  0  0  0  0  0  0  0  0  0  0
   -1.1198   -4.9060    0.0000 C   0  0  0  0  0  0  0  0  0  0  0  0
    0.3761   -5.0181    0.0000 C   0  0  0  0  0  0  0  0  0  0  0  0
    1.8384   -4.6843    0.0000 O   0  0  0  0  0  0  0  0  0  0  0  0
    3.1375   -3.9343    0.0000 C   0  0  0  0  0  0  0  0  0  0  0  0
    4.1577   -2.8347    0.0000 C   0  0  0  0  0  0  0  0  0  0  0  0
    4.8086   -1.4832    0.0000 N   0  0  0  0  0  0  0  0  0  0  0  0
   -6.4592    0.9736    0.0000 O   0  0  0  0  0  0  0  0  0  0  0  0
   -4.7884    4.4430    0.0000 C   0  0  0  0  0  0  0  0  0  0  0  0
   -4.4546    5.9054    0.0000 C   0  0  0  0  0  0  0  0  0  0  0  0
   -3.0212    6.3475    0.0000 O   0  0  0  0  0  0  0  0  0  0  0  0
   -5.5542    6.9256    0.0000 O   0  0  0  0  0  0  0  0  0  0  0  0
    0.4881    6.5139    0.0000 C   0  0  0  0  0  0  0  0  0  0  0  0
    1.8396    7.1647    0.0000 C   0  0  0  0  0  0  0  0  0  0  0  0
    3.0790    6.3197    0.0000 O   0  0  0  0  0  0  0  0  0  0  0  0
    1.9517    8.6605    0.0000 O   0  0  0  0  0  0  0  0  0  0  0  0
    5.3971    3.6797    0.0000 C   0  0  0  0  0  0  0  0  0  0  0  0
    5.2850    5.1755    0.0000 C   0  0  0  0  0  0  0  0  0  0  0  0
    3.9336    5.8263    0.0000 O   0  0  0  0  0  0  0  0  0  0  0  0
    6.5244    6.0205    0.0000 O   0  0  0  0  0  0  0  0  0  0  0  0
  1  2  2  0
  2  3  1  0
  3  4  1  0
  4  5  1  0
  5  6  1  0
  6  7  1  0
  7  8  1  0
  8  9  1  0
  9 10  1  0
 10 11  1  0
 11 12  1  0
 12 13  1  0
 13 14  1  0
 14 15  1  0
 15 16  1  0
 16 17  1  0
 17 18  1  0
 18 19  1  0
 19 20  1  0
 20 21  1  0
 21 22  1  0
 12 23  2  0
 10 24  1  0
 24 25  1  0
 25 26  2  0
 25 27  1  0
  7 28  1  0
 28 29  1  0
 29 30  2  0
 29 31  1  0
  4 32  1  0
 32 33  1  0
 33 34  2  0
 33 35  1  0
 22  2  1  0
M  END
>  <Name>  (149) 
9,20-Dioxo-13,16-dioxa-1,4,7,10,19-pentaazacycloheneicosane-1,4,7-triacetic_acid

>  <logK_La_z=3.0_T=25_I=0.1>  (149) 
14.5

$$$$

     RDKit          2D

 29 29  0  0  0  0  0  0  0  0999 V2000
    5.1073    0.0000    0.0000 O   0  0  0  0  0  0  0  0  0  0  0  0
    3.6073    0.0000    0.0000 C   0  0  0  0  0  0  0  0  0  0  0  0
    3.2954    1.4672    0.0000 C   0  0  0  0  0  0  0  0  0  0  0  0
    2.4138    2.6807    0.0000 N   0  0  0  0  0  0  0  0  0  0  0  0
    1.1147    3.4307    0.0000 C   0  0  0  0  0  0  0  0  0  0  0  0
   -0.3771    3.5875    0.0000 C   0  0  0  0  0  0  0  0  0  0  0  0
   -1.8037    3.1240    0.0000 N   0  0  0  0  0  0  0  0  0  0  0  0
   -2.9184    2.1203    0.0000 C   0  0  0  0  0  0  0  0  0  0  0  0
   -3.5285    0.7500    0.0000 C   0  0  0  0  0  0  0  0  0  0  0  0
   -3.5285   -0.7500    0.0000 N   0  0  0  0  0  0  0  0  0  0  0  0
   -2.9184   -2.1203    0.0000 C   0  0  0  0  0  0  0  0  0  0  0  0
   -1.8037   -3.1240    0.0000 C   0  0  0  0  0  0  0  0  0  0  0  0
   -0.3771   -3.5875    0.0000 N   0  0  0  0  0  0  0  0  0  0  0  0
    1.1147   -3.4307    0.0000 C   0  0  0  0  0  0  0  0  0  0  0  0
    2.4138   -2.6807    0.0000 C   0  0  0  0  0  0  0  0  0  0  0  0
    3.2954   -1.4672    0.0000 N   0  0  0  0  0  0  0  0  0  0  0  0
   -0.5339   -5.0793    0.0000 C   0  0  0  0  0  0  0  0  0  0  0  0
   -1.9042   -5.6894    0.0000 C   0  0  0  0  0  0  0  0  0  0  0  0
   -3.1177   -4.8077    0.0000 O   0  0  0  0  0  0  0  0  0  0  0  0
   -2.0610   -7.1812    0.0000 O   0  0  0  0  0  0  0  0  0  0  0  0
   -4.9957    1.0619    0.0000 O   0  0  0  0  0  0  0  0  0  0  0  0
   -2.5537    4.4231    0.0000 C   0  0  0  0  0  0  0  0  0  0  0  0
   -1.8037    5.7221    0.0000 C   0  0  0  0  0  0  0  0  0  0  0  0
   -0.3037    5.7221    0.0000 O   0  0  0  0  0  0  0  0  0  0  0  0
   -2.5537    7.0211    0.0000 O   0  0  0  0  0  0  0  0  0  0  0  0
    3.4175    3.7955    0.0000 C   0  0  0  0  0  0  0  0  0  0  0  0
    4.8847    3.4836    0.0000 C   0  0  0  0  0  0  0  0  0  0  0  0
    5.3482    2.0570    0.0000 O   0  0  0  0  0  0  0  0  0  0  0  0
    5.8884    4.5983    0.0000 O   0  0  0  0  0  0  0  0  0  0  0  0
  1  2  2  0
  2  3  1  0
  3  4  1  0
  4  5  1  0
  5  6  1  0
  6  7  1  0
  7  8  1  0
  8  9  1  0
  9 10  1  0
 10 11  1  0
 11 12  1  0
 12 13  1  0
 13 14  1  0
 14 15  1  0
 15 16  1  0
 13 17  1  0
 17 18  1  0
 18 19  2  0
 18 20  1  0
  9 21  2  0
  7 22  1  0
 22 23  1  0
 23 24  2  0
 23 25  1  0
  4 26  1  0
 26 27  1  0
 27 28  2  0
 27 29  1  0
 16  2  1  0
M  END
>  <Name>  (150) 
6,14-Dioxo-1,4,7,10,13-pentaazacyclopentadecane-1,4,10-triacetic_acid

>  <logK_La_z=3.0_T=25_I=0.1>  (150) 
13.6

$$$$

     RDKit          2D

 28 28  0  0  0  0  0  0  0  0999 V2000
    6.6478   -1.2990    0.0000 O   0  0  0  0  0  0  0  0  0  0  0  0
    5.1478   -1.2990    0.0000 C   0  0  0  0  0  0  0  0  0  0  0  0
    4.3978    0.0000    0.0000 C   0  0  0  0  0  0  0  0  0  0  0  0
    2.8978    0.0000    0.0000 N   0  0  0  0  0  0  0  0  0  0  0  0
    2.5095   -1.4489    0.0000 C   0  0  0  0  0  0  0  0  0  0  0  0
    1.4489   -2.5095    0.0000 C   0  0  0  0  0  0  0  0  0  0  0  0
   -0.0000   -2.8978    0.0000 N   0  0  0  0  0  0  0  0  0  0  0  0
   -0.0000   -4.3978    0.0000 C   0  0  0  0  0  0  0  0  0  0  0  0
   -1.2990   -5.1478    0.0000 C   0  0  0  0  0  0  0  0  0  0  0  0
   -2.5981   -4.3978    0.0000 O   0  0  0  0  0  0  0  0  0  0  0  0
   -1.2990   -6.6478    0.0000 O   0  0  0  0  0  0  0  0  0  0  0  0
   -1.4489   -2.5095    0.0000 C   0  0  0  0  0  0  0  0  0  0  0  0
   -2.5095   -1.4489    0.0000 C   0  0  0  0  0  0  0  0  0  0  0  0
   -2.8978    0.0000    0.0000 N   0  0  0  0  0  0  0  0  0  0  0  0
   -4.3978    0.0000    0.0000 C   0  0  0  0  0  0  0  0  0  0  0  0
   -5.1478    1.2990    0.0000 C   0  0  0  0  0  0  0  0  0  0  0  0
   -4.3978    2.5981    0.0000 O   0  0  0  0  0  0  0  0  0  0  0  0
   -6.6478    1.2990    0.0000 O   0  0  0  0  0  0  0  0  0  0  0  0
   -2.5095    1.4489    0.0000 C   0  0  0  0  0  0  0  0  0  0  0  0
   -1.4489    2.5095    0.0000 C   0  0  0  0  0  0  0  0  0  0  0  0
    0.0000    2.8978    0.0000 N   0  0  0  0  0  0  0  0  0  0  0  0
    0.0000    4.3978    0.0000 C   0  0  0  0  0  0  0  0  0  0  0  0
    1.2990    5.1478    0.0000 C   0  0  0  0  0  0  0  0  0  0  0  0
    2.5981    4.3978    0.0000 O   0  0  0  0  0  0  0  0  0  0  0  0
    1.2990    6.6478    0.0000 O   0  0  0  0  0  0  0  0  0  0  0  0
    1.4489    2.5095    0.0000 C   0  0  0  0  0  0  0  0  0  0  0  0
    2.5095    1.4489    0.0000 C   0  0  0  0  0  0  0  0  0  0  0  0
    4.3978   -2.5981    0.0000 O   0  0  0  0  0  0  0  0  0  0  0  0
  1  2  1  0
  2  3  1  0
  3  4  1  0
  4  5  1  0
  5  6  1  0
  6  7  1  0
  7  8  1  0
  8  9  1  0
  9 10  2  0
  9 11  1  0
  7 12  1  0
 12 13  1  0
 13 14  1  0
 14 15  1  0
 15 16  1  0
 16 17  2  0
 16 18  1  0
 14 19  1  0
 19 20  1  0
 20 21  1  0
 21 22  1  0
 22 23  1  0
 23 24  2  0
 23 25  1  0
 21 26  1  0
 26 27  1  0
  2 28  2  0
 27  4  1  0
M  END
>  <Name>  (151) 
1,4,7,10-Tetraazacyclododecane-N,N',N'',N'''-tetraacetic_acid_(DOTA)

>  <logK_La_z=3.0_T=25_I=0.1>  (151) 
22.0

$$$$

     RDKit          2D

 10  9  0  0  0  0  0  0  0  0999 V2000
   -1.2990    0.7500    0.0000 N   0  0  0  0  0  0  0  0  0  0  0  0
    0.0000    0.0000    0.0000 C   0  0  0  0  0  0  0  0  0  0  0  0
    1.2990    0.7500    0.0000 C   0  0  0  0  0  0  0  0  0  0  0  0
    2.5981   -0.0000    0.0000 N   0  0  0  0  0  0  0  0  0  0  0  0
    3.8971    0.7500    0.0000 C   0  0  0  0  0  0  0  0  0  0  0  0
    5.1962   -0.0000    0.0000 C   0  0  0  0  0  0  0  0  0  0  0  0
    6.4952    0.7500    0.0000 N   0  0  0  0  0  0  0  0  0  0  0  0
    7.7942   -0.0000    0.0000 C   0  0  0  0  0  0  0  0  0  0  0  0
    9.0933    0.7500    0.0000 C   0  0  0  0  0  0  0  0  0  0  0  0
   10.3923   -0.0000    0.0000 N   0  0  0  0  0  0  0  0  0  0  0  0
  1  2  1  0
  2  3  1  0
  3  4  1  0
  4  5  1  0
  5  6  1  0
  6  7  1  0
  7  8  1  0
  8  9  1  0
  9 10  1  0
M  END
>  <Name>  (152) 
1,4,8,11-Tetraazacyclotetradecane-N,N',N'',N'''-tetraacetic_acid_(TETA)

>  <logK_La_z=3.0_T=25_I=0.1>  (152) 
11.53

$$$$

     RDKit          2D

 17 16  0  0  0  0  0  0  0  0999 V2000
   -0.2010   -4.4462    0.0000 F   0  0  0  0  0  0  0  0  0  0  0  0
    0.5490   -3.1471    0.0000 C   0  0  0  0  0  0  0  0  0  0  0  0
    1.2990   -1.8481    0.0000 C   0  0  0  0  0  0  0  0  0  0  0  0
    2.0490   -0.5490    0.0000 O   0  0  0  0  0  0  0  0  0  0  0  0
    1.2990    0.7500    0.0000 C   0  0  0  0  0  0  0  0  0  0  0  0
    2.5981    1.5000    0.0000 C   0  0  0  0  0  0  0  0  0  0  0  0
    3.8971    2.2500    0.0000 F   0  0  0  0  0  0  0  0  0  0  0  0
    1.8481    2.7990    0.0000 F   0  0  0  0  0  0  0  0  0  0  0  0
    3.3481    0.2010    0.0000 F   0  0  0  0  0  0  0  0  0  0  0  0
   -0.0000    0.0000    0.0000 C   0  0  0  0  0  0  0  0  0  0  0  0
   -1.2990    0.7500    0.0000 O   0  0  0  0  0  0  0  0  0  0  0  0
   -0.0972   -0.7912    0.0000 O   0  0  0  0  0  0  0  0  0  0  0  0
    0.5490    2.0490    0.0000 F   0  0  0  0  0  0  0  0  0  0  0  0
    0.5652   -1.5366    0.0000 F   0  0  0  0  0  0  0  0  0  0  0  0
    2.5981   -2.5981    0.0000 F   0  0  0  0  0  0  0  0  0  0  0  0
    1.8481   -3.8971    0.0000 F   0  0  0  0  0  0  0  0  0  0  0  0
   -0.7500   -2.3971    0.0000 F   0  0  0  0  0  0  0  0  0  0  0  0
  1  2  1  0
  2  3  1  0
  3  4  1  0
  4  5  1  0
  5  6  1  0
  6  7  1  0
  6  8  1  0
  6  9  1  0
  5 10  1  0
 10 11  1  0
 10 12  2  0
  5 13  1  0
  3 14  1  0
  3 15  1  0
  2 16  1  0
  2 17  1  0
M  END
>  <Name>  (153) 
1,4,7,10,13-Pentaazacyclopentadecane-N,N',N'',N''',N''''-pentaacetic_acid_(PEPA)

>  <logK_La_z=3.0_T=25_I=0.1>  (153) 
13.57

$$$$

     RDKit          2D

 16 16  0  0  0  0  0  0  0  0999 V2000
    5.2500    1.2990    0.0000 O   0  0  0  0  0  0  0  0  0  0  0  0
    6.0000    0.0000    0.0000 C   0  0  0  0  0  0  0  0  0  0  0  0
    5.2500   -1.2990    0.0000 C   0  0  0  0  0  0  0  0  0  0  0  0
    3.7500   -1.2990    0.0000 N   0  0  0  0  0  0  0  0  0  0  0  0
    3.0000   -2.5981    0.0000 C   0  0  0  0  0  0  0  0  0  0  0  0
    3.7500   -3.8971    0.0000 C   0  0  0  0  0  0  0  0  0  0  0  0
    5.2500   -3.8971    0.0000 O   0  0  0  0  0  0  0  0  0  0  0  0
    3.0000   -5.1962    0.0000 O   0  0  0  0  0  0  0  0  0  0  0  0
    3.0000    0.0000    0.0000 C   0  0  0  0  0  0  0  0  0  0  0  0
    1.5000    0.0000    0.0000 C   0  0  0  0  0  0  0  0  0  0  0  0
    0.7500   -1.2990    0.0000 C   0  0  0  0  0  0  0  0  0  0  0  0
   -0.7500   -1.2990    0.0000 C   0  0  0  0  0  0  0  0  0  0  0  0
   -1.5000    0.0000    0.0000 C   0  0  0  0  0  0  0  0  0  0  0  0
   -0.7500    1.2990    0.0000 C   0  0  0  0  0  0  0  0  0  0  0  0
    0.7500    1.2990    0.0000 C   0  0  0  0  0  0  0  0  0  0  0  0
    7.5000   -0.0000    0.0000 O   0  0  0  0  0  0  0  0  0  0  0  0
  1  2  1  0
  2  3  1  0
  3  4  1  0
  4  5  1  0
  5  6  1  0
  6  7  2  0
  6  8  1  0
  4  9  1  0
  9 10  1  0
 10 11  2  0
 11 12  1  0
 12 13  2  0
 13 14  1  0
 14 15  2  0
  2 16  2  0
 15 10  1  0
M  END
>  <Name>  (154) 
N-Benzyliminodiacetic_acid

>  <logK_La_z=3.0_T=25_I=0.1>  (154) 
5.42

$$$$

     RDKit          2D

 14 13  0  0  0  0  0  0  0  0999 V2000
    2.5981   -0.0000    0.0000 C   0  0  0  0  0  0  0  0  0  0  0  0
    3.8971    0.7500    0.0000 O   0  0  0  0  0  0  0  0  0  0  0  0
    1.2990    0.7500    0.0000 C   0  0  0  0  0  0  0  0  0  0  0  0
    0.0000    0.0000    0.0000 C   0  0  0  0  0  0  0  0  0  0  0  0
    1.2990    2.2500    0.0000 N   0  0  0  0  0  0  0  0  0  0  0  0
    2.5981    3.0000    0.0000 C   0  0  0  0  0  0  0  0  0  0  0  0
    2.5981    4.5000    0.0000 C   0  0  0  0  0  0  0  0  0  0  0  0
    3.8971    5.2500    0.0000 O   0  0  0  0  0  0  0  0  0  0  0  0
    1.2990    5.2500    0.0000 O   0  0  0  0  0  0  0  0  0  0  0  0
   -0.0000    3.0000    0.0000 C   0  0  0  0  0  0  0  0  0  0  0  0
   -1.2990    2.2500    0.0000 C   0  0  0  0  0  0  0  0  0  0  0  0
   -2.5981    3.0000    0.0000 O   0  0  0  0  0  0  0  0  0  0  0  0
   -1.2990    0.7500    0.0000 O   0  0  0  0  0  0  0  0  0  0  0  0
    2.5981   -1.5000    0.0000 O   0  0  0  0  0  0  0  0  0  0  0  0
  1  2  1  0
  1  3  1  0
  3  4  1  0
  3  5  1  0
  5  6  1  0
  6  7  1  0
  7  8  1  0
  7  9  2  0
  5 10  1  0
 10 11  1  0
 11 12  1  0
 11 13  2  0
  1 14  2  0
M  END
>  <Name>  (155) 
DL-2-Methylnitrilotriacetic_acid

>  <logK_La_z=3.0_T=20_I=0.1>  (155) 
11.02

$$$$

     RDKit          2D

 15 14  0  0  0  0  0  0  0  0999 V2000
    5.1962   -0.0000    0.0000 O   0  0  0  0  0  0  0  0  0  0  0  0
    3.8971    0.7500    0.0000 C   0  0  0  0  0  0  0  0  0  0  0  0
    2.5981   -0.0000    0.0000 C   0  0  0  0  0  0  0  0  0  0  0  0
    1.2990    0.7500    0.0000 C   0  0  0  0  0  0  0  0  0  0  0  0
    1.2990    2.2500    0.0000 C   0  0  0  0  0  0  0  0  0  0  0  0
    2.5981   -1.5000    0.0000 N   0  0  0  0  0  0  0  0  0  0  0  0
    3.8971   -2.2500    0.0000 C   0  0  0  0  0  0  0  0  0  0  0  0
    3.8971   -3.7500    0.0000 C   0  0  0  0  0  0  0  0  0  0  0  0
    2.5981   -4.5000    0.0000 O   0  0  0  0  0  0  0  0  0  0  0  0
    5.1962   -4.5000    0.0000 O   0  0  0  0  0  0  0  0  0  0  0  0
    1.2990   -2.2500    0.0000 C   0  0  0  0  0  0  0  0  0  0  0  0
   -0.0000   -1.5000    0.0000 C   0  0  0  0  0  0  0  0  0  0  0  0
    0.0000    0.0000    0.0000 O   0  0  0  0  0  0  0  0  0  0  0  0
   -1.2990   -2.2500    0.0000 O   0  0  0  0  0  0  0  0  0  0  0  0
    3.8971    2.2500    0.0000 O   0  0  0  0  0  0  0  0  0  0  0  0
  1  2  1  0
  2  3  1  0
  3  4  1  0
  4  5  1  0
  3  6  1  0
  6  7  1  0
  7  8  1  0
  8  9  2  0
  8 10  1  0
  6 11  1  0
 11 12  1  0
 12 13  2  0
 12 14  1  0
  2 15  2  0
M  END
>  <Name>  (156) 
DL-2-Ethylnitrilotriacetic_acid

>  <logK_La_z=3.0_T=20_I=0.1>  (156) 
9.98

$$$$

     RDKit          2D

 16 15  0  0  0  0  0  0  0  0999 V2000
    2.5981   -0.0000    0.0000 C   0  0  0  0  0  0  0  0  0  0  0  0
    1.2990    0.7500    0.0000 C   0  0  0  0  0  0  0  0  0  0  0  0
    0.0000    0.0000    0.0000 C   0  0  0  0  0  0  0  0  0  0  0  0
    3.8971    0.7500    0.0000 C   0  0  0  0  0  0  0  0  0  0  0  0
    5.1962   -0.0000    0.0000 C   0  0  0  0  0  0  0  0  0  0  0  0
    5.1962   -1.5000    0.0000 O   0  0  0  0  0  0  0  0  0  0  0  0
    6.4952    0.7500    0.0000 O   0  0  0  0  0  0  0  0  0  0  0  0
    3.8971    2.2500    0.0000 N   0  0  0  0  0  0  0  0  0  0  0  0
    5.1962    3.0000    0.0000 C   0  0  0  0  0  0  0  0  0  0  0  0
    5.1962    4.5000    0.0000 C   0  0  0  0  0  0  0  0  0  0  0  0
    4.4102    5.0923    0.0000 O   0  0  0  0  0  0  0  0  0  0  0  0
    6.4952    5.2500    0.0000 O   0  0  0  0  0  0  0  0  0  0  0  0
    2.5981    3.0000    0.0000 C   0  0  0  0  0  0  0  0  0  0  0  0
    2.5981    4.5000    0.0000 C   0  0  0  0  0  0  0  0  0  0  0  0
    3.3840    5.0923    0.0000 O   0  0  0  0  0  0  0  0  0  0  0  0
    1.2990    5.2500    0.0000 O   0  0  0  0  0  0  0  0  0  0  0  0
  1  2  1  0
  2  3  1  0
  1  4  1  0
  4  5  1  0
  5  6  2  0
  5  7  1  0
  4  8  1  0
  8  9  1  0
  9 10  1  0
 10 11  2  0
 10 12  1  0
  8 13  1  0
 13 14  1  0
 14 15  2  0
 14 16  1  0
M  END
>  <Name>  (157) 
DL-2-Propylnitrilotriacetic_acid

>  <logK_La_z=3.0_T=20_I=0.1>  (157) 
9.75

$$$$

     RDKit          2D

 16 15  0  0  0  0  0  0  0  0999 V2000
    0.0000    0.0000    0.0000 C   0  0  0  0  0  0  0  0  0  0  0  0
    1.2990    0.7500    0.0000 C   0  0  0  0  0  0  0  0  0  0  0  0
    2.5981   -0.0000    0.0000 C   0  0  0  0  0  0  0  0  0  0  0  0
    1.2990    2.2500    0.0000 C   0  0  0  0  0  0  0  0  0  0  0  0
    2.5981    3.0000    0.0000 C   0  0  0  0  0  0  0  0  0  0  0  0
    3.8971    2.2500    0.0000 O   0  0  0  0  0  0  0  0  0  0  0  0
    2.5981    4.5000    0.0000 O   0  0  0  0  0  0  0  0  0  0  0  0
   -0.0000    3.0000    0.0000 N   0  0  0  0  0  0  0  0  0  0  0  0
   -0.0000    4.5000    0.0000 C   0  0  0  0  0  0  0  0  0  0  0  0
   -1.2990    5.2500    0.0000 C   0  0  0  0  0  0  0  0  0  0  0  0
   -2.2050    4.8655    0.0000 O   0  0  0  0  0  0  0  0  0  0  0  0
   -1.2990    6.7500    0.0000 O   0  0  0  0  0  0  0  0  0  0  0  0
   -1.2990    2.2500    0.0000 C   0  0  0  0  0  0  0  0  0  0  0  0
   -2.5981    3.0000    0.0000 C   0  0  0  0  0  0  0  0  0  0  0  0
   -3.8971    2.2500    0.0000 O   0  0  0  0  0  0  0  0  0  0  0  0
   -2.7180    3.9768    0.0000 O   0  0  0  0  0  0  0  0  0  0  0  0
  1  2  1  0
  2  3  1  0
  2  4  1  0
  4  5  1  0
  5  6  2  0
  5  7  1  0
  4  8  1  0
  8  9  1  0
  9 10  1  0
 10 11  2  0
 10 12  1  0
  8 13  1  0
 13 14  1  0
 14 15  2  0
 14 16  1  0
M  END
>  <Name>  (158) 
DL-2-(2-Propyl)nitrilotriacetic_acid

>  <logK_La_z=3.0_T=20_I=0.1>  (158) 
8.3

$$$$

     RDKit          2D

 19 18  0  0  0  0  0  0  0  0999 V2000
   10.3923   -0.0000    0.0000 O   0  0  0  0  0  0  0  0  0  0  0  0
    9.0933    0.7500    0.0000 C   0  0  0  0  0  0  0  0  0  0  0  0
    7.7942   -0.0000    0.0000 C   0  0  0  0  0  0  0  0  0  0  0  0
    6.4952    0.7500    0.0000 C   0  0  0  0  0  0  0  0  0  0  0  0
    5.1962   -0.0000    0.0000 C   0  0  0  0  0  0  0  0  0  0  0  0
    3.8971    0.7500    0.0000 C   0  0  0  0  0  0  0  0  0  0  0  0
    2.5981   -0.0000    0.0000 C   0  0  0  0  0  0  0  0  0  0  0  0
    1.2990    0.7500    0.0000 C   0  0  0  0  0  0  0  0  0  0  0  0
    0.0000    0.0000    0.0000 C   0  0  0  0  0  0  0  0  0  0  0  0
    7.7942   -1.5000    0.0000 N   0  0  0  0  0  0  0  0  0  0  0  0
    9.0933   -2.2500    0.0000 C   0  0  0  0  0  0  0  0  0  0  0  0
    9.0933   -3.7500    0.0000 C   0  0  0  0  0  0  0  0  0  0  0  0
    8.3073   -4.3423    0.0000 O   0  0  0  0  0  0  0  0  0  0  0  0
   10.3923   -4.5000    0.0000 O   0  0  0  0  0  0  0  0  0  0  0  0
    6.4952   -2.2500    0.0000 C   0  0  0  0  0  0  0  0  0  0  0  0
    6.4952   -3.7500    0.0000 C   0  0  0  0  0  0  0  0  0  0  0  0
    7.2812   -4.3423    0.0000 O   0  0  0  0  0  0  0  0  0  0  0  0
    5.1962   -4.5000    0.0000 O   0  0  0  0  0  0  0  0  0  0  0  0
    9.0933    2.2500    0.0000 O   0  0  0  0  0  0  0  0  0  0  0  0
  1  2  1  0
  2  3  1  0
  3  4  1  0
  4  5  1  0
  5  6  1  0
  6  7  1  0
  7  8  1  0
  8  9  1  0
  3 10  1  0
 10 11  1  0
 11 12  1  0
 12 13  2  0
 12 14  1  0
 10 15  1  0
 15 16  1  0
 16 17  2  0
 16 18  1  0
  2 19  2  0
M  END
>  <Name>  (159) 
DL-2-Hexylnitrilotriacetic_acid

>  <logK_La_z=3.0_T=20_I=0.1>  (159) 
9.84

$$$$

     RDKit          2D

 20 20  0  0  0  0  0  0  0  0999 V2000
    3.0000    0.0000    0.0000 C   0  0  0  0  0  0  0  0  0  0  0  0
    1.5000    0.0000    0.0000 C   0  0  0  0  0  0  0  0  0  0  0  0
    0.7500   -1.2990    0.0000 C   0  0  0  0  0  0  0  0  0  0  0  0
   -0.7500   -1.2990    0.0000 C   0  0  0  0  0  0  0  0  0  0  0  0
   -1.5000    0.0000    0.0000 C   0  0  0  0  0  0  0  0  0  0  0  0
   -0.7500    1.2990    0.0000 C   0  0  0  0  0  0  0  0  0  0  0  0
    0.7500    1.2990    0.0000 C   0  0  0  0  0  0  0  0  0  0  0  0
    3.7500   -1.2990    0.0000 C   0  0  0  0  0  0  0  0  0  0  0  0
    5.2500   -1.2990    0.0000 C   0  0  0  0  0  0  0  0  0  0  0  0
    6.0000    0.0000    0.0000 O   0  0  0  0  0  0  0  0  0  0  0  0
    5.8423   -2.0850    0.0000 O   0  0  0  0  0  0  0  0  0  0  0  0
    3.0000   -2.5981    0.0000 N   0  0  0  0  0  0  0  0  0  0  0  0
    3.7500   -3.8971    0.0000 C   0  0  0  0  0  0  0  0  0  0  0  0
    5.2500   -3.8971    0.0000 C   0  0  0  0  0  0  0  0  0  0  0  0
    5.8423   -3.1112    0.0000 O   0  0  0  0  0  0  0  0  0  0  0  0
    6.0000   -5.1962    0.0000 O   0  0  0  0  0  0  0  0  0  0  0  0
    1.5000   -2.5981    0.0000 C   0  0  0  0  0  0  0  0  0  0  0  0
    0.7500   -3.8971    0.0000 C   0  0  0  0  0  0  0  0  0  0  0  0
    1.5000   -5.1962    0.0000 O   0  0  0  0  0  0  0  0  0  0  0  0
   -0.7500   -3.8971    0.0000 O   0  0  0  0  0  0  0  0  0  0  0  0
  1  2  1  0
  2  3  2  0
  3  4  1  0
  4  5  2  0
  5  6  1  0
  6  7  2  0
  1  8  1  0
  8  9  1  0
  9 10  2  0
  9 11  1  0
  8 12  1  0
 12 13  1  0
 13 14  1  0
 14 15  2  0
 14 16  1  0
 12 17  1  0
 17 18  1  0
 18 19  2  0
 18 20  1  0
  7  2  1  0
M  END
>  <Name>  (160) 
DL-2-Benzylnitrilotriacetic_acid

>  <logK_La_z=3.0_T=25_I=0.1>  (160) 
10.86

$$$$

     RDKit          2D

 14 13  0  0  0  0  0  0  0  0999 V2000
    1.2990    2.2500    0.0000 O   0  0  0  0  0  0  0  0  0  0  0  0
    1.2990    0.7500    0.0000 C   0  0  0  0  0  0  0  0  0  0  0  0
    0.0000    0.0000    0.0000 C   0  0  0  0  0  0  0  0  0  0  0  0
   -1.2990    0.7500    0.0000 O   0  0  0  0  0  0  0  0  0  0  0  0
    2.5981   -0.0000    0.0000 C   0  0  0  0  0  0  0  0  0  0  0  0
    3.8971    0.7500    0.0000 N   0  0  0  0  0  0  0  0  0  0  0  0
    5.1962   -0.0000    0.0000 C   0  0  0  0  0  0  0  0  0  0  0  0
    5.1962   -1.5000    0.0000 C   0  0  0  0  0  0  0  0  0  0  0  0
    3.8971   -2.2500    0.0000 O   0  0  0  0  0  0  0  0  0  0  0  0
    6.4952   -2.2500    0.0000 O   0  0  0  0  0  0  0  0  0  0  0  0
    3.8971    2.2500    0.0000 C   0  0  0  0  0  0  0  0  0  0  0  0
    5.1962    3.0000    0.0000 C   0  0  0  0  0  0  0  0  0  0  0  0
    5.1962    4.5000    0.0000 O   0  0  0  0  0  0  0  0  0  0  0  0
    6.4952    2.2500    0.0000 O   0  0  0  0  0  0  0  0  0  0  0  0
  1  2  1  0
  2  3  1  0
  3  4  1  0
  2  5  1  0
  5  6  1  0
  6  7  1  0
  7  8  1  0
  8  9  2  0
  8 10  1  0
  6 11  1  0
 11 12  1  0
 12 13  2  0
 12 14  1  0
M  END
>  <Name>  (161) 
DL-N-(2,3-Dihydroxypropyl)iminodiacetic_acid

>  <logK_La_z=3.0_T=20_I=0.1>  (161) 
7.52

$$$$

     RDKit          2D

 13 12  0  0  0  0  0  0  0  0999 V2000
    1.2990    0.7500    0.0000 O   0  0  0  0  0  0  0  0  0  0  0  0
    0.0000    0.0000    0.0000 C   0  0  0  0  0  0  0  0  0  0  0  0
    2.5981   -0.0000    0.0000 C   0  0  0  0  0  0  0  0  0  0  0  0
    3.8971    0.7500    0.0000 C   0  0  0  0  0  0  0  0  0  0  0  0
    5.1962   -0.0000    0.0000 N   0  0  0  0  0  0  0  0  0  0  0  0
    6.4952    0.7500    0.0000 C   0  0  0  0  0  0  0  0  0  0  0  0
    7.7942   -0.0000    0.0000 C   0  0  0  0  0  0  0  0  0  0  0  0
    7.7942   -1.5000    0.0000 O   0  0  0  0  0  0  0  0  0  0  0  0
    9.0933    0.7500    0.0000 O   0  0  0  0  0  0  0  0  0  0  0  0
    5.1962   -1.5000    0.0000 C   0  0  0  0  0  0  0  0  0  0  0  0
    3.8971   -2.2500    0.0000 C   0  0  0  0  0  0  0  0  0  0  0  0
    2.5981   -1.5000    0.0000 O   0  0  0  0  0  0  0  0  0  0  0  0
    3.8971   -3.7500    0.0000 O   0  0  0  0  0  0  0  0  0  0  0  0
  1  2  1  0
  1  3  1  0
  3  4  1  0
  4  5  1  0
  5  6  1  0
  6  7  1  0
  7  8  2  0
  7  9  1  0
  5 10  1  0
 10 11  1  0
 11 12  2  0
 11 13  1  0
M  END
>  <Name>  (162) 
N-(2-Methoxyethyl)iminodiacetic_acid

>  <logK_La_z=3.0_T=25_I=0.1>  (162) 
7.14

$$$$

     RDKit          2D

 18 18  0  0  0  0  0  0  0  0999 V2000
    3.0000    0.0000    0.0000 O   0  0  0  0  0  0  0  0  0  0  0  0
    1.5000    0.0000    0.0000 C   0  0  0  0  0  0  0  0  0  0  0  0
    0.7500   -1.2990    0.0000 N   0  0  0  0  0  0  0  0  0  0  0  0
   -0.7500   -1.2990    0.0000 C   0  0  0  0  0  0  0  0  0  0  0  0
   -1.5000   -2.5981    0.0000 O   0  0  0  0  0  0  0  0  0  0  0  0
   -1.5000    0.0000    0.0000 C   0  0  0  0  0  0  0  0  0  0  0  0
   -3.0000    0.0000    0.0000 N   0  0  0  0  0  0  0  0  0  0  0  0
   -3.7500    1.2990    0.0000 C   0  0  0  0  0  0  0  0  0  0  0  0
   -5.2500    1.2990    0.0000 C   0  0  0  0  0  0  0  0  0  0  0  0
   -6.0000    2.5981    0.0000 O   0  0  0  0  0  0  0  0  0  0  0  0
   -5.8423    0.5131    0.0000 O   0  0  0  0  0  0  0  0  0  0  0  0
   -3.7500   -1.2990    0.0000 C   0  0  0  0  0  0  0  0  0  0  0  0
   -5.2500   -1.2990    0.0000 C   0  0  0  0  0  0  0  0  0  0  0  0
   -6.0000   -2.5981    0.0000 O   0  0  0  0  0  0  0  0  0  0  0  0
   -5.8423   -0.5131    0.0000 O   0  0  0  0  0  0  0  0  0  0  0  0
   -0.7500    1.2990    0.0000 C   0  0  0  0  0  0  0  0  0  0  0  0
   -1.5000    2.5981    0.0000 O   0  0  0  0  0  0  0  0  0  0  0  0
    0.7500    1.2990    0.0000 N   0  0  0  0  0  0  0  0  0  0  0  0
  1  2  2  0
  2  3  1  0
  3  4  1  0
  4  5  2  0
  4  6  1  0
  6  7  1  0
  7  8  1  0
  8  9  1  0
  9 10  1  0
  9 11  2  0
  7 12  1  0
 12 13  1  0
 13 14  1  0
 13 15  2  0
  6 16  1  0
 16 17  2  0
 16 18  1  0
 18  2  1  0
M  END
>  <Name>  (163) 
5-Amino-2,4,6-trioxo-1,3-perhydrodiazine-N,N-diacetic_acid_(Uramil-N,N-diacetic_acid)

>  <logK_La_z=3.0_T=25_I=0.1>  (163) 
12.82

$$$$

     RDKit          2D

 13 12  0  0  0  0  0  0  0  0999 V2000
    1.2990    0.7500    0.0000 S   0  0  0  0  0  0  0  0  0  0  0  0
    0.0000    0.0000    0.0000 C   0  0  0  0  0  0  0  0  0  0  0  0
    2.5981   -0.0000    0.0000 C   0  0  0  0  0  0  0  0  0  0  0  0
    3.8971    0.7500    0.0000 C   0  0  0  0  0  0  0  0  0  0  0  0
    5.1962   -0.0000    0.0000 N   0  0  0  0  0  0  0  0  0  0  0  0
    6.4952    0.7500    0.0000 C   0  0  0  0  0  0  0  0  0  0  0  0
    7.7942   -0.0000    0.0000 C   0  0  0  0  0  0  0  0  0  0  0  0
    7.7942   -1.5000    0.0000 O   0  0  0  0  0  0  0  0  0  0  0  0
    9.0933    0.7500    0.0000 O   0  0  0  0  0  0  0  0  0  0  0  0
    5.1962   -1.5000    0.0000 C   0  0  0  0  0  0  0  0  0  0  0  0
    3.8971   -2.2500    0.0000 C   0  0  0  0  0  0  0  0  0  0  0  0
    2.5981   -1.5000    0.0000 O   0  0  0  0  0  0  0  0  0  0  0  0
    3.8971   -3.7500    0.0000 O   0  0  0  0  0  0  0  0  0  0  0  0
  1  2  1  0
  1  3  1  0
  3  4  1  0
  4  5  1  0
  5  6  1  0
  6  7  1  0
  7  8  2  0
  7  9  1  0
  5 10  1  0
 10 11  1  0
 11 12  2  0
 11 13  1  0
M  END
>  <Name>  (164) 
N-[2-(Methylthio)ethyl]iminodiacetic_acid

>  <logK_La_z=3.0_T=25_I=0.1>  (164) 
5.59

$$$$

     RDKit          2D

 19 18  0  0  0  0  0  0  0  0999 V2000
   -1.2990    0.7500    0.0000 O   0  0  0  0  0  0  0  0  0  0  0  0
    0.0000    0.0000    0.0000 C   0  0  0  0  0  0  0  0  0  0  0  0
    1.2990    0.7500    0.0000 C   0  0  0  0  0  0  0  0  0  0  0  0
    2.5981   -0.0000    0.0000 N   0  0  0  0  0  0  0  0  0  0  0  0
    3.8971    0.7500    0.0000 C   0  0  0  0  0  0  0  0  0  0  0  0
    5.1962   -0.0000    0.0000 C   0  0  0  0  0  0  0  0  0  0  0  0
    6.4952    0.7500    0.0000 N   0  0  0  0  0  0  0  0  0  0  0  0
    7.7942   -0.0000    0.0000 C   0  0  0  0  0  0  0  0  0  0  0  0
    9.0933    0.7500    0.0000 C   0  0  0  0  0  0  0  0  0  0  0  0
   10.3923   -0.0000    0.0000 O   0  0  0  0  0  0  0  0  0  0  0  0
    9.0933    2.2500    0.0000 O   0  0  0  0  0  0  0  0  0  0  0  0
    6.4952    2.2500    0.0000 C   0  0  0  0  0  0  0  0  0  0  0  0
    5.1962    3.0000    0.0000 C   0  0  0  0  0  0  0  0  0  0  0  0
    5.1962    4.5000    0.0000 O   0  0  0  0  0  0  0  0  0  0  0  0
    3.8971    2.2500    0.0000 O   0  0  0  0  0  0  0  0  0  0  0  0
    2.5981   -1.5000    0.0000 C   0  0  0  0  0  0  0  0  0  0  0  0
    3.8971   -2.2500    0.0000 C   0  0  0  0  0  0  0  0  0  0  0  0
    3.8971   -3.7500    0.0000 O   0  0  0  0  0  0  0  0  0  0  0  0
    5.1962   -1.5000    0.0000 O   0  0  0  0  0  0  0  0  0  0  0  0
  1  2  1  0
  2  3  1  0
  3  4  1  0
  4  5  1  0
  5  6  1  0
  6  7  1  0
  7  8  1  0
  8  9  1  0
  9 10  1  0
  9 11  2  0
  7 12  1  0
 12 13  1  0
 13 14  1  0
 13 15  2  0
  4 16  1  0
 16 17  1  0
 17 18  1  0
 17 19  2  0
M  END
>  <Name>  (165) 
N-(2-Hydroxyethyl)ethylenedinitrilotriacetic_acid_(HEDTA)

>  <logK_La_z=3.0_T=25_I=0.1>  (165) 
13.48

>  <logK_La_z=3.0_T=25_I=0.5>  (165) 
12.97

$$$$

     RDKit          2D

 20 19  0  0  0  0  0  0  0  0999 V2000
   -1.2990    0.7500    0.0000 N   0  0  0  0  0  0  0  0  0  0  0  0
    0.0000    0.0000    0.0000 C   0  0  0  0  0  0  0  0  0  0  0  0
    1.2990    0.7500    0.0000 C   0  0  0  0  0  0  0  0  0  0  0  0
    1.2990    2.2500    0.0000 O   0  0  0  0  0  0  0  0  0  0  0  0
    2.5981   -0.0000    0.0000 O   0  0  0  0  0  0  0  0  0  0  0  0
   -1.2990    2.2500    0.0000 C   0  0  0  0  0  0  0  0  0  0  0  0
   -2.5981    3.0000    0.0000 C   0  0  0  0  0  0  0  0  0  0  0  0
   -3.8971    2.2500    0.0000 O   0  0  0  0  0  0  0  0  0  0  0  0
   -2.5981    4.5000    0.0000 O   0  0  0  0  0  0  0  0  0  0  0  0
   -2.5981    0.0000    0.0000 C   0  0  0  0  0  0  0  0  0  0  0  0
   -3.8971    0.7500    0.0000 C   0  0  0  0  0  0  0  0  0  0  0  0
   -5.1962    0.0000    0.0000 N   0  0  0  0  0  0  0  0  0  0  0  0
   -6.4952    0.7500    0.0000 C   0  0  0  0  0  0  0  0  0  0  0  0
   -7.7942    0.0000    0.0000 C   0  0  0  0  0  0  0  0  0  0  0  0
   -7.7942   -1.5000    0.0000 O   0  0  0  0  0  0  0  0  0  0  0  0
   -9.0933    0.7500    0.0000 O   0  0  0  0  0  0  0  0  0  0  0  0
   -5.1962   -1.5000    0.0000 C   0  0  0  0  0  0  0  0  0  0  0  0
   -3.8971   -2.2500    0.0000 C   0  0  0  0  0  0  0  0  0  0  0  0
   -2.5981   -1.5000    0.0000 O   0  0  0  0  0  0  0  0  0  0  0  0
   -3.8971   -3.7500    0.0000 O   0  0  0  0  0  0  0  0  0  0  0  0
  1  2  1  0
  2  3  1  0
  3  4  2  0
  3  5  1  0
  1  6  1  0
  6  7  1  0
  7  8  2  0
  7  9  1  0
  1 10  1  0
 10 11  1  0
 11 12  1  0
 12 13  1  0
 13 14  1  0
 14 15  2  0
 14 16  1  0
 12 17  1  0
 17 18  1  0
 18 19  2  0
 18 20  1  0
M  END
>  <Name>  (166) 
Ethylenedinitrilotetraacetic_acid_(EDTA)

>  <logK_La_z=3.0_T=25_I=0.1>  (166) 
15.36

>  <logK_La_z=3.0_T=25_I=0.5>  (166) 
14.48

$$$$

     RDKit          2D

 21 20  0  0  0  0  0  0  0  0999 V2000
    0.0000    0.0000    0.0000 C   0  0  0  0  0  0  0  0  0  0  0  0
    1.2990    0.7500    0.0000 C   0  0  0  0  0  0  0  0  0  0  0  0
    2.5981   -0.0000    0.0000 C   0  0  0  0  0  0  0  0  0  0  0  0
    3.8971    0.7500    0.0000 N   0  0  0  0  0  0  0  0  0  0  0  0
    5.1962   -0.0000    0.0000 C   0  0  0  0  0  0  0  0  0  0  0  0
    5.1962   -1.5000    0.0000 C   0  0  0  0  0  0  0  0  0  0  0  0
    6.4952   -2.2500    0.0000 O   0  0  0  0  0  0  0  0  0  0  0  0
    3.8971   -2.2500    0.0000 O   0  0  0  0  0  0  0  0  0  0  0  0
    3.8971    2.2500    0.0000 C   0  0  0  0  0  0  0  0  0  0  0  0
    5.1962    3.0000    0.0000 C   0  0  0  0  0  0  0  0  0  0  0  0
    5.1962    4.5000    0.0000 O   0  0  0  0  0  0  0  0  0  0  0  0
    6.4952    2.2500    0.0000 O   0  0  0  0  0  0  0  0  0  0  0  0
    1.2990    2.2500    0.0000 N   0  0  0  0  0  0  0  0  0  0  0  0
    2.5981    3.0000    0.0000 C   0  0  0  0  0  0  0  0  0  0  0  0
    2.5981    4.5000    0.0000 C   0  0  0  0  0  0  0  0  0  0  0  0
    3.8971    5.2500    0.0000 O   0  0  0  0  0  0  0  0  0  0  0  0
    1.2990    5.2500    0.0000 O   0  0  0  0  0  0  0  0  0  0  0  0
   -0.0000    3.0000    0.0000 C   0  0  0  0  0  0  0  0  0  0  0  0
   -1.2990    2.2500    0.0000 C   0  0  0  0  0  0  0  0  0  0  0  0
   -2.5981    3.0000    0.0000 O   0  0  0  0  0  0  0  0  0  0  0  0
   -1.2990    0.7500    0.0000 O   0  0  0  0  0  0  0  0  0  0  0  0
  1  2  1  0
  2  3  1  0
  3  4  1  0
  4  5  1  0
  5  6  1  0
  6  7  1  0
  6  8  2  0
  4  9  1  0
  9 10  1  0
 10 11  1  0
 10 12  2  0
  2 13  1  0
 13 14  1  0
 14 15  1  0
 15 16  1  0
 15 17  2  0
 13 18  1  0
 18 19  1  0
 19 20  1  0
 19 21  2  0
M  END
>  <Name>  (167) 
DL-(Methylethylene)dinitrilotetraacetic_acid_(PDTA)

>  <logK_La_z=3.0_T=20_I=0.1>  (167) 
16.36

$$$$

     RDKit          2D

 22 21  0  0  0  0  0  0  0  0999 V2000
    0.0000    0.0000    0.0000 C   0  0  0  0  0  0  0  0  0  0  0  0
    1.2990    0.7500    0.0000 C   0  0  0  0  0  0  0  0  0  0  0  0
    2.0490   -0.5490    0.0000 C   0  0  0  0  0  0  0  0  0  0  0  0
    1.2990   -1.8481    0.0000 N   0  0  0  0  0  0  0  0  0  0  0  0
   -0.2010   -1.8481    0.0000 C   0  0  0  0  0  0  0  0  0  0  0  0
   -0.9510   -3.1471    0.0000 C   0  0  0  0  0  0  0  0  0  0  0  0
   -0.2010   -4.4462    0.0000 O   0  0  0  0  0  0  0  0  0  0  0  0
   -2.4510   -3.1471    0.0000 O   0  0  0  0  0  0  0  0  0  0  0  0
    2.0490   -3.1471    0.0000 C   0  0  0  0  0  0  0  0  0  0  0  0
    3.5490   -3.1471    0.0000 C   0  0  0  0  0  0  0  0  0  0  0  0
    4.2990   -4.4462    0.0000 O   0  0  0  0  0  0  0  0  0  0  0  0
    4.2990   -1.8481    0.0000 O   0  0  0  0  0  0  0  0  0  0  0  0
    2.5981    1.5000    0.0000 C   0  0  0  0  0  0  0  0  0  0  0  0
    0.5490    2.0490    0.0000 N   0  0  0  0  0  0  0  0  0  0  0  0
    1.2990    3.3481    0.0000 C   0  0  0  0  0  0  0  0  0  0  0  0
    0.5490    4.6471    0.0000 C   0  0  0  0  0  0  0  0  0  0  0  0
   -0.9510    4.6471    0.0000 O   0  0  0  0  0  0  0  0  0  0  0  0
    1.2990    5.9462    0.0000 O   0  0  0  0  0  0  0  0  0  0  0  0
   -0.9510    2.0490    0.0000 C   0  0  0  0  0  0  0  0  0  0  0  0
   -1.7010    0.7500    0.0000 C   0  0  0  0  0  0  0  0  0  0  0  0
   -0.9510   -0.5490    0.0000 O   0  0  0  0  0  0  0  0  0  0  0  0
   -3.2010    0.7500    0.0000 O   0  0  0  0  0  0  0  0  0  0  0  0
  1  2  1  0
  2  3  1  0
  3  4  1  0
  4  5  1  0
  5  6  1  0
  6  7  2  0
  6  8  1  0
  4  9  1  0
  9 10  1  0
 10 11  2  0
 10 12  1  0
  2 13  1  0
  2 14  1  0
 14 15  1  0
 15 16  1  0
 16 17  2  0
 16 18  1  0
 14 19  1  0
 19 20  1  0
 20 21  2  0
 20 22  1  0
M  END
>  <Name>  (168) 
(1,1-Dimethylethylene)dinitrilotetraacetic_acid

>  <logK_La_z=3.0_T=20_I=0.1>  (168) 
15.43

$$$$

     RDKit          2D

 22 21  0  0  0  0  0  0  0  0999 V2000
    0.0000    0.0000    0.0000 C   0  0  0  0  0  0  0  0  0  0  0  0
    1.2990    0.7500    0.0000 C   0  0  0  0  0  0  0  0  0  0  0  0
    1.2990    2.2500    0.0000 N   0  0  0  0  0  0  0  0  0  0  0  0
    2.5981    3.0000    0.0000 C   0  0  0  0  0  0  0  0  0  0  0  0
    2.5981    4.5000    0.0000 C   0  0  0  0  0  0  0  0  0  0  0  0
    3.8971    5.2500    0.0000 O   0  0  0  0  0  0  0  0  0  0  0  0
    1.2990    5.2500    0.0000 O   0  0  0  0  0  0  0  0  0  0  0  0
   -0.0000    3.0000    0.0000 C   0  0  0  0  0  0  0  0  0  0  0  0
   -1.2990    2.2500    0.0000 C   0  0  0  0  0  0  0  0  0  0  0  0
   -2.5981    3.0000    0.0000 O   0  0  0  0  0  0  0  0  0  0  0  0
   -1.2990    0.7500    0.0000 O   0  0  0  0  0  0  0  0  0  0  0  0
    2.5981   -0.0000    0.0000 C   0  0  0  0  0  0  0  0  0  0  0  0
    2.5981   -1.5000    0.0000 N   0  0  0  0  0  0  0  0  0  0  0  0
    3.8971   -2.2500    0.0000 C   0  0  0  0  0  0  0  0  0  0  0  0
    5.1962   -1.5000    0.0000 C   0  0  0  0  0  0  0  0  0  0  0  0
    6.4952   -2.2500    0.0000 O   0  0  0  0  0  0  0  0  0  0  0  0
    5.1962    0.0000    0.0000 O   0  0  0  0  0  0  0  0  0  0  0  0
    1.2990   -2.2500    0.0000 C   0  0  0  0  0  0  0  0  0  0  0  0
    1.2990   -3.7500    0.0000 C   0  0  0  0  0  0  0  0  0  0  0  0
   -0.0000   -4.5000    0.0000 O   0  0  0  0  0  0  0  0  0  0  0  0
    2.5981   -4.5000    0.0000 O   0  0  0  0  0  0  0  0  0  0  0  0
    3.8971    0.7500    0.0000 C   0  0  0  0  0  0  0  0  0  0  0  0
  1  2  1  0
  2  3  1  0
  3  4  1  0
  4  5  1  0
  5  6  1  0
  5  7  2  0
  3  8  1  0
  8  9  1  0
  9 10  1  0
  9 11  2  0
  2 12  1  0
 12 13  1  0
 13 14  1  0
 14 15  1  0
 15 16  1  0
 15 17  2  0
 13 18  1  0
 18 19  1  0
 19 20  1  0
 19 21  2  0
 12 22  1  0
M  END
>  <Name>  (169) 
rac-(1,2-Dimethylethylene)dinitrilotetraacetic_acid

>  <logK_La_z=3.0_T=20_I=0.1>  (169) 
16.62

$$$$

     RDKit          2D

 24 24  0  0  0  0  0  0  0  0999 V2000
    3.7500   -3.8971    0.0000 O   0  0  0  0  0  0  0  0  0  0  0  0
    3.0000   -2.5981    0.0000 C   0  0  0  0  0  0  0  0  0  0  0  0
    1.5000   -2.5981    0.0000 O   0  0  0  0  0  0  0  0  0  0  0  0
    3.7500   -1.2990    0.0000 C   0  0  0  0  0  0  0  0  0  0  0  0
    3.0000    0.0000    0.0000 N   0  0  0  0  0  0  0  0  0  0  0  0
    3.7500    1.2990    0.0000 C   0  0  0  0  0  0  0  0  0  0  0  0
    5.2500    1.2990    0.0000 C   0  0  0  0  0  0  0  0  0  0  0  0
    6.0000    2.5981    0.0000 O   0  0  0  0  0  0  0  0  0  0  0  0
    6.0000    0.0000    0.0000 O   0  0  0  0  0  0  0  0  0  0  0  0
    1.5000    0.0000    0.0000 C   0  0  0  0  0  0  0  0  0  0  0  0
    0.7500   -1.2990    0.0000 C   0  0  0  0  0  0  0  0  0  0  0  0
   -0.7500   -1.2990    0.0000 C   0  0  0  0  0  0  0  0  0  0  0  0
   -1.5000    0.0000    0.0000 C   0  0  0  0  0  0  0  0  0  0  0  0
   -0.7500    1.2990    0.0000 C   0  0  0  0  0  0  0  0  0  0  0  0
    0.7500    1.2990    0.0000 C   0  0  0  0  0  0  0  0  0  0  0  0
    1.5000    2.5981    0.0000 N   0  0  0  0  0  0  0  0  0  0  0  0
    0.7500    3.8971    0.0000 C   0  0  0  0  0  0  0  0  0  0  0  0
   -0.7500    3.8971    0.0000 C   0  0  0  0  0  0  0  0  0  0  0  0
   -1.5000    5.1962    0.0000 O   0  0  0  0  0  0  0  0  0  0  0  0
   -1.5000    2.5981    0.0000 O   0  0  0  0  0  0  0  0  0  0  0  0
    3.0000    2.5981    0.0000 C   0  0  0  0  0  0  0  0  0  0  0  0
    3.7500    3.8971    0.0000 C   0  0  0  0  0  0  0  0  0  0  0  0
    5.2500    3.8971    0.0000 O   0  0  0  0  0  0  0  0  0  0  0  0
    3.0000    5.1962    0.0000 O   0  0  0  0  0  0  0  0  0  0  0  0
  1  2  1  0
  2  3  2  0
  2  4  1  0
  4  5  1  0
  5  6  1  0
  6  7  1  0
  7  8  1  0
  7  9  2  0
  5 10  1  0
 10 11  1  0
 11 12  1  0
 12 13  1  0
 13 14  1  0
 14 15  1  0
 15 16  1  0
 16 17  1  0
 17 18  1  0
 18 19  1  0
 18 20  2  0
 16 21  1  0
 21 22  1  0
 22 23  1  0
 22 24  2  0
 15 10  1  0
M  END
>  <Name>  (170) 
trans-1,2-Cyclohexylenedinitrilotetraacetic_acid_(CDTA)

>  <logK_La_z=3.0_T=20_I=0.1>  (170) 
16.9

>  <logK_La_z=3.0_T=25_I=0.5>  (170) 
15.24

>  <logK_La_z=3.0_T=25_I=1.0>  (170) 
16.3

$$$$

     RDKit          2D

 21 20  0  0  0  0  0  0  0  0999 V2000
    1.2990    0.7500    0.0000 C   0  0  0  0  0  0  0  0  0  0  0  0
    2.5981   -0.0000    0.0000 O   0  0  0  0  0  0  0  0  0  0  0  0
    1.2990    2.2500    0.0000 O   0  0  0  0  0  0  0  0  0  0  0  0
    0.0000    0.0000    0.0000 C   0  0  0  0  0  0  0  0  0  0  0  0
   -1.2990    0.7500    0.0000 N   0  0  0  0  0  0  0  0  0  0  0  0
   -2.5981    0.0000    0.0000 C   0  0  0  0  0  0  0  0  0  0  0  0
   -3.8971    0.7500    0.0000 C   0  0  0  0  0  0  0  0  0  0  0  0
   -5.1962    0.0000    0.0000 C   0  0  0  0  0  0  0  0  0  0  0  0
   -6.4952    0.7500    0.0000 N   0  0  0  0  0  0  0  0  0  0  0  0
   -7.7942    0.0000    0.0000 C   0  0  0  0  0  0  0  0  0  0  0  0
   -7.7942   -1.5000    0.0000 C   0  0  0  0  0  0  0  0  0  0  0  0
   -9.0933   -2.2500    0.0000 O   0  0  0  0  0  0  0  0  0  0  0  0
   -6.4952   -2.2500    0.0000 O   0  0  0  0  0  0  0  0  0  0  0  0
   -6.4952    2.2500    0.0000 C   0  0  0  0  0  0  0  0  0  0  0  0
   -7.7942    3.0000    0.0000 C   0  0  0  0  0  0  0  0  0  0  0  0
   -7.7942    4.5000    0.0000 O   0  0  0  0  0  0  0  0  0  0  0  0
   -9.0933    2.2500    0.0000 O   0  0  0  0  0  0  0  0  0  0  0  0
   -1.2990    2.2500    0.0000 C   0  0  0  0  0  0  0  0  0  0  0  0
   -2.5981    3.0000    0.0000 C   0  0  0  0  0  0  0  0  0  0  0  0
   -2.5981    4.5000    0.0000 O   0  0  0  0  0  0  0  0  0  0  0  0
   -3.8971    2.2500    0.0000 O   0  0  0  0  0  0  0  0  0  0  0  0
  1  2  1  0
  1  3  2  0
  1  4  1  0
  4  5  1  0
  5  6  1  0
  6  7  1  0
  7  8  1  0
  8  9  1  0
  9 10  1  0
 10 11  1  0
 11 12  1  0
 11 13  2  0
  9 14  1  0
 14 15  1  0
 15 16  1  0
 15 17  2  0
  5 18  1  0
 18 19  1  0
 19 20  1  0
 19 21  2  0
M  END
>  <Name>  (171) 
Trimethylenedinitrilotetraacetic_acid_(TMDTA)

>  <logK_La_z=3.0_T=25_I=0.1>  (171) 
11.22

>  <logK_La_z=3.0_T=20_I=0.1>  (171) 
11.17

$$$$

     RDKit          2D

 22 21  0  0  0  0  0  0  0  0999 V2000
    2.5981   -0.0000    0.0000 O   0  0  0  0  0  0  0  0  0  0  0  0
    1.2990    0.7500    0.0000 C   0  0  0  0  0  0  0  0  0  0  0  0
    0.0000    0.0000    0.0000 C   0  0  0  0  0  0  0  0  0  0  0  0
   -1.2990    0.7500    0.0000 N   0  0  0  0  0  0  0  0  0  0  0  0
   -1.2990    2.2500    0.0000 C   0  0  0  0  0  0  0  0  0  0  0  0
   -2.5981    3.0000    0.0000 C   0  0  0  0  0  0  0  0  0  0  0  0
   -3.8971    2.2500    0.0000 O   0  0  0  0  0  0  0  0  0  0  0  0
   -2.5981    4.5000    0.0000 O   0  0  0  0  0  0  0  0  0  0  0  0
   -2.5981    0.0000    0.0000 C   0  0  0  0  0  0  0  0  0  0  0  0
   -3.8971    0.7500    0.0000 C   0  0  0  0  0  0  0  0  0  0  0  0
   -5.1962    0.0000    0.0000 C   0  0  0  0  0  0  0  0  0  0  0  0
   -6.4952    0.7500    0.0000 C   0  0  0  0  0  0  0  0  0  0  0  0
   -7.7942    0.0000    0.0000 N   0  0  0  0  0  0  0  0  0  0  0  0
   -9.0933    0.7500    0.0000 C   0  0  0  0  0  0  0  0  0  0  0  0
  -10.3923    0.0000    0.0000 C   0  0  0  0  0  0  0  0  0  0  0  0
  -10.3923   -1.5000    0.0000 O   0  0  0  0  0  0  0  0  0  0  0  0
  -11.6913    0.7500    0.0000 O   0  0  0  0  0  0  0  0  0  0  0  0
   -7.7942   -1.5000    0.0000 C   0  0  0  0  0  0  0  0  0  0  0  0
   -6.4952   -2.2500    0.0000 C   0  0  0  0  0  0  0  0  0  0  0  0
   -5.1962   -1.5000    0.0000 O   0  0  0  0  0  0  0  0  0  0  0  0
   -6.4952   -3.7500    0.0000 O   0  0  0  0  0  0  0  0  0  0  0  0
    1.2990    2.2500    0.0000 O   0  0  0  0  0  0  0  0  0  0  0  0
  1  2  1  0
  2  3  1  0
  3  4  1  0
  4  5  1  0
  5  6  1  0
  6  7  2  0
  6  8  1  0
  4  9  1  0
  9 10  1  0
 10 11  1  0
 11 12  1  0
 12 13  1  0
 13 14  1  0
 14 15  1  0
 15 16  2  0
 15 17  1  0
 13 18  1  0
 18 19  1  0
 19 20  2  0
 19 21  1  0
  2 22  2  0
M  END
>  <Name>  (172) 
Tetramethylenedinitrilotetraacetic_acid

>  <logK_La_z=3.0_T=25_I=0.1>  (172) 
9.04

>  <logK_La_z=3.0_T=20_I=0.1>  (172) 
9.02

$$$$

     RDKit          2D

 23 22  0  0  0  0  0  0  0  0999 V2000
    2.5981   -0.0000    0.0000 O   0  0  0  0  0  0  0  0  0  0  0  0
    1.2990    0.7500    0.0000 C   0  0  0  0  0  0  0  0  0  0  0  0
    0.0000    0.0000    0.0000 C   0  0  0  0  0  0  0  0  0  0  0  0
   -1.2990    0.7500    0.0000 N   0  0  0  0  0  0  0  0  0  0  0  0
   -1.2990    2.2500    0.0000 C   0  0  0  0  0  0  0  0  0  0  0  0
   -2.5981    3.0000    0.0000 C   0  0  0  0  0  0  0  0  0  0  0  0
   -3.8971    2.2500    0.0000 O   0  0  0  0  0  0  0  0  0  0  0  0
   -2.5981    4.5000    0.0000 O   0  0  0  0  0  0  0  0  0  0  0  0
   -2.5981    0.0000    0.0000 C   0  0  0  0  0  0  0  0  0  0  0  0
   -3.8971    0.7500    0.0000 C   0  0  0  0  0  0  0  0  0  0  0  0
   -5.1962    0.0000    0.0000 C   0  0  0  0  0  0  0  0  0  0  0  0
   -6.4952    0.7500    0.0000 C   0  0  0  0  0  0  0  0  0  0  0  0
   -7.7942    0.0000    0.0000 C   0  0  0  0  0  0  0  0  0  0  0  0
   -9.0933    0.7500    0.0000 N   0  0  0  0  0  0  0  0  0  0  0  0
  -10.3923    0.0000    0.0000 C   0  0  0  0  0  0  0  0  0  0  0  0
  -11.6913    0.7500    0.0000 C   0  0  0  0  0  0  0  0  0  0  0  0
  -11.6913    2.2500    0.0000 O   0  0  0  0  0  0  0  0  0  0  0  0
  -12.9904    0.0000    0.0000 O   0  0  0  0  0  0  0  0  0  0  0  0
   -9.0933    2.2500    0.0000 C   0  0  0  0  0  0  0  0  0  0  0  0
   -7.7942    3.0000    0.0000 C   0  0  0  0  0  0  0  0  0  0  0  0
   -6.4952    2.2500    0.0000 O   0  0  0  0  0  0  0  0  0  0  0  0
   -7.7942    4.5000    0.0000 O   0  0  0  0  0  0  0  0  0  0  0  0
    1.2990    2.2500    0.0000 O   0  0  0  0  0  0  0  0  0  0  0  0
  1  2  1  0
  2  3  1  0
  3  4  1  0
  4  5  1  0
  5  6  1  0
  6  7  2  0
  6  8  1  0
  4  9  1  0
  9 10  1  0
 10 11  1  0
 11 12  1  0
 12 13  1  0
 13 14  1  0
 14 15  1  0
 15 16  1  0
 16 17  2  0
 16 18  1  0
 14 19  1  0
 19 20  1  0
 20 21  2  0
 20 22  1  0
  2 23  2  0
M  END
>  <Name>  (173) 
Pentamethylenedinitrilotetraacetic_acid

>  <logK_La_z=3.0_T=25_I=0.1>  (173) 
9.2

$$$$

     RDKit          2D

 24 23  0  0  0  0  0  0  0  0999 V2000
    0.0000    0.0000    0.0000 C   0  0  0  0  0  0  0  0  0  0  0  0
   -1.2990    0.7500    0.0000 C   0  0  0  0  0  0  0  0  0  0  0  0
   -2.5981    0.0000    0.0000 C   0  0  0  0  0  0  0  0  0  0  0  0
   -3.8971    0.7500    0.0000 N   0  0  0  0  0  0  0  0  0  0  0  0
   -5.1962    0.0000    0.0000 C   0  0  0  0  0  0  0  0  0  0  0  0
   -6.4952    0.7500    0.0000 C   0  0  0  0  0  0  0  0  0  0  0  0
   -7.7942    0.0000    0.0000 O   0  0  0  0  0  0  0  0  0  0  0  0
   -6.4952    2.2500    0.0000 O   0  0  0  0  0  0  0  0  0  0  0  0
   -3.8971    2.2500    0.0000 C   0  0  0  0  0  0  0  0  0  0  0  0
   -2.5981    3.0000    0.0000 C   0  0  0  0  0  0  0  0  0  0  0  0
   -1.2990    2.2500    0.0000 O   0  0  0  0  0  0  0  0  0  0  0  0
   -2.5981    4.5000    0.0000 O   0  0  0  0  0  0  0  0  0  0  0  0
    1.2990    0.7500    0.0000 C   0  0  0  0  0  0  0  0  0  0  0  0
    2.5981   -0.0000    0.0000 C   0  0  0  0  0  0  0  0  0  0  0  0
    3.8971    0.7500    0.0000 C   0  0  0  0  0  0  0  0  0  0  0  0
    5.1962   -0.0000    0.0000 N   0  0  0  0  0  0  0  0  0  0  0  0
    6.4952    0.7500    0.0000 C   0  0  0  0  0  0  0  0  0  0  0  0
    7.7942   -0.0000    0.0000 C   0  0  0  0  0  0  0  0  0  0  0  0
    9.0933    0.7500    0.0000 O   0  0  0  0  0  0  0  0  0  0  0  0
    7.7942   -1.5000    0.0000 O   0  0  0  0  0  0  0  0  0  0  0  0
    5.1962   -1.5000    0.0000 C   0  0  0  0  0  0  0  0  0  0  0  0
    3.8971   -2.2500    0.0000 C   0  0  0  0  0  0  0  0  0  0  0  0
    3.8971   -3.7500    0.0000 O   0  0  0  0  0  0  0  0  0  0  0  0
    2.5981   -1.5000    0.0000 O   0  0  0  0  0  0  0  0  0  0  0  0
  1  2  1  0
  2  3  1  0
  3  4  1  0
  4  5  1  0
  5  6  1  0
  6  7  1  0
  6  8  2  0
  4  9  1  0
  9 10  1  0
 10 11  1  0
 10 12  2  0
  1 13  1  0
 13 14  1  0
 14 15  1  0
 15 16  1  0
 16 17  1  0
 17 18  1  0
 18 19  1  0
 18 20  2  0
 16 21  1  0
 21 22  1  0
 22 23  1  0
 22 24  2  0
M  END
>  <Name>  (174) 
Hexamethylenedinitrilotetraacetic_acid

>  <logK_La_z=3.0_T=25_I=1.0>  (174) 
7.93

$$$$

     RDKit          2D

 23 22  0  0  0  0  0  0  0  0999 V2000
    1.2990    2.2500    0.0000 C   0  0  0  0  0  0  0  0  0  0  0  0
    1.2990    0.7500    0.0000 C   0  0  0  0  0  0  0  0  0  0  0  0
    2.5981   -0.0000    0.0000 C   0  0  0  0  0  0  0  0  0  0  0  0
    3.8971    0.7500    0.0000 C   0  0  0  0  0  0  0  0  0  0  0  0
    5.1962   -0.0000    0.0000 C   0  0  0  0  0  0  0  0  0  0  0  0
    3.8971    2.2500    0.0000 N   0  0  0  0  0  0  0  0  0  0  0  0
    2.5981    3.0000    0.0000 C   0  0  0  0  0  0  0  0  0  0  0  0
    2.5981    4.5000    0.0000 C   0  0  0  0  0  0  0  0  0  0  0  0
    3.8971    5.2500    0.0000 O   0  0  0  0  0  0  0  0  0  0  0  0
    1.2990    5.2500    0.0000 O   0  0  0  0  0  0  0  0  0  0  0  0
    5.1962    3.0000    0.0000 C   0  0  0  0  0  0  0  0  0  0  0  0
    6.4952    2.2500    0.0000 C   0  0  0  0  0  0  0  0  0  0  0  0
    6.4952    0.7500    0.0000 O   0  0  0  0  0  0  0  0  0  0  0  0
    7.7942    3.0000    0.0000 O   0  0  0  0  0  0  0  0  0  0  0  0
   -0.0000   -0.0000    0.0000 N   0  0  0  0  0  0  0  0  0  0  0  0
   -1.2990    0.7500    0.0000 C   0  0  0  0  0  0  0  0  0  0  0  0
   -1.2990    2.2500    0.0000 C   0  0  0  0  0  0  0  0  0  0  0  0
   -0.0000    3.0000    0.0000 O   0  0  0  0  0  0  0  0  0  0  0  0
   -2.5981    3.0000    0.0000 O   0  0  0  0  0  0  0  0  0  0  0  0
    0.0000   -1.5000    0.0000 C   0  0  0  0  0  0  0  0  0  0  0  0
   -1.2990   -2.2500    0.0000 C   0  0  0  0  0  0  0  0  0  0  0  0
   -2.5981   -1.5000    0.0000 O   0  0  0  0  0  0  0  0  0  0  0  0
   -1.2990   -3.7500    0.0000 O   0  0  0  0  0  0  0  0  0  0  0  0
  1  2  1  0
  2  3  1  0
  3  4  1  0
  4  5  1  0
  4  6  1  0
  6  7  1  0
  7  8  1  0
  8  9  2  0
  8 10  1  0
  6 11  1  0
 11 12  1  0
 12 13  2  0
 12 14  1  0
  2 15  1  0
 15 16  1  0
 16 17  1  0
 17 18  2  0
 17 19  1  0
 15 20  1  0
 20 21  1  0
 21 22  2  0
 21 23  1  0
M  END
>  <Name>  (175) 
rac-(1,3-Dimethyltrimethylene)dinitrilotetraacetic_acid

>  <logK_La_z=3.0_T=20_I=0.1>  (175) 
10.21

$$$$

     RDKit          2D

 22 21  0  0  0  0  0  0  0  0999 V2000
   -0.0000   -1.5000    0.0000 C   0  0  0  0  0  0  0  0  0  0  0  0
    1.2990   -2.2500    0.0000 O   0  0  0  0  0  0  0  0  0  0  0  0
   -1.2990   -2.2500    0.0000 O   0  0  0  0  0  0  0  0  0  0  0  0
    0.0000    0.0000    0.0000 C   0  0  0  0  0  0  0  0  0  0  0  0
   -1.2990    0.7500    0.0000 N   0  0  0  0  0  0  0  0  0  0  0  0
   -2.5981    0.0000    0.0000 C   0  0  0  0  0  0  0  0  0  0  0  0
   -3.8971    0.7500    0.0000 C   0  0  0  0  0  0  0  0  0  0  0  0
   -3.8971    2.2500    0.0000 O   0  0  0  0  0  0  0  0  0  0  0  0
   -5.1962    0.0000    0.0000 C   0  0  0  0  0  0  0  0  0  0  0  0
   -6.4952    0.7500    0.0000 N   0  0  0  0  0  0  0  0  0  0  0  0
   -7.7942    0.0000    0.0000 C   0  0  0  0  0  0  0  0  0  0  0  0
   -7.7942   -1.5000    0.0000 C   0  0  0  0  0  0  0  0  0  0  0  0
   -9.0933   -2.2500    0.0000 O   0  0  0  0  0  0  0  0  0  0  0  0
   -6.4952   -2.2500    0.0000 O   0  0  0  0  0  0  0  0  0  0  0  0
   -6.4952    2.2500    0.0000 C   0  0  0  0  0  0  0  0  0  0  0  0
   -7.7942    3.0000    0.0000 C   0  0  0  0  0  0  0  0  0  0  0  0
   -7.7942    4.5000    0.0000 O   0  0  0  0  0  0  0  0  0  0  0  0
   -9.0933    2.2500    0.0000 O   0  0  0  0  0  0  0  0  0  0  0  0
   -1.2990    2.2500    0.0000 C   0  0  0  0  0  0  0  0  0  0  0  0
    0.0000    3.0000    0.0000 C   0  0  0  0  0  0  0  0  0  0  0  0
    0.0000    4.5000    0.0000 O   0  0  0  0  0  0  0  0  0  0  0  0
    1.2990    2.2500    0.0000 O   0  0  0  0  0  0  0  0  0  0  0  0
  1  2  1  0
  1  3  2  0
  1  4  1  0
  4  5  1  0
  5  6  1  0
  6  7  1  0
  7  8  1  0
  7  9  1  0
  9 10  1  0
 10 11  1  0
 11 12  1  0
 12 13  1  0
 12 14  2  0
 10 15  1  0
 15 16  1  0
 16 17  1  0
 16 18  2  0
  5 19  1  0
 19 20  1  0
 20 21  1  0
 20 22  2  0
M  END
>  <Name>  (176) 
(2-Hydroxytrimethylene)dinitrilotetraacetic_acid

>  <logK_La_z=3.0_T=25_I=0.1>  (176) 
11.61

>  <logK_La_z=3.0_T=20_I=0.1>  (176) 
12.2

$$$$

     RDKit          2D

 25 24  0  0  0  0  0  0  0  0999 V2000
   -1.2990    0.7500    0.0000 O   0  0  0  0  0  0  0  0  0  0  0  0
    0.0000    0.0000    0.0000 C   0  0  0  0  0  0  0  0  0  0  0  0
    1.2990    0.7500    0.0000 C   0  0  0  0  0  0  0  0  0  0  0  0
    2.5981   -0.0000    0.0000 C   0  0  0  0  0  0  0  0  0  0  0  0
    3.8971    0.7500    0.0000 N   0  0  0  0  0  0  0  0  0  0  0  0
    5.1962   -0.0000    0.0000 C   0  0  0  0  0  0  0  0  0  0  0  0
    6.4952    0.7500    0.0000 C   0  0  0  0  0  0  0  0  0  0  0  0
    6.4952    2.2500    0.0000 O   0  0  0  0  0  0  0  0  0  0  0  0
    7.7942   -0.0000    0.0000 O   0  0  0  0  0  0  0  0  0  0  0  0
    3.8971    2.2500    0.0000 C   0  0  0  0  0  0  0  0  0  0  0  0
    2.5981    3.0000    0.0000 C   0  0  0  0  0  0  0  0  0  0  0  0
    2.5981    4.5000    0.0000 O   0  0  0  0  0  0  0  0  0  0  0  0
    1.2990    2.2500    0.0000 O   0  0  0  0  0  0  0  0  0  0  0  0
   -2.5981    0.0000    0.0000 C   0  0  0  0  0  0  0  0  0  0  0  0
   -3.8971    0.7500    0.0000 C   0  0  0  0  0  0  0  0  0  0  0  0
   -5.1962    0.0000    0.0000 C   0  0  0  0  0  0  0  0  0  0  0  0
   -6.4952    0.7500    0.0000 N   0  0  0  0  0  0  0  0  0  0  0  0
   -7.7942    0.0000    0.0000 C   0  0  0  0  0  0  0  0  0  0  0  0
   -9.0933    0.7500    0.0000 C   0  0  0  0  0  0  0  0  0  0  0  0
   -9.0933    2.2500    0.0000 O   0  0  0  0  0  0  0  0  0  0  0  0
  -10.3923    0.0000    0.0000 O   0  0  0  0  0  0  0  0  0  0  0  0
   -6.4952    2.2500    0.0000 C   0  0  0  0  0  0  0  0  0  0  0  0
   -5.1962    3.0000    0.0000 C   0  0  0  0  0  0  0  0  0  0  0  0
   -5.1962    4.5000    0.0000 O   0  0  0  0  0  0  0  0  0  0  0  0
   -3.8971    2.2500    0.0000 O   0  0  0  0  0  0  0  0  0  0  0  0
  1  2  1  0
  2  3  1  0
  3  4  1  0
  4  5  1  0
  5  6  1  0
  6  7  1  0
  7  8  2  0
  7  9  1  0
  5 10  1  0
 10 11  1  0
 11 12  2  0
 11 13  1  0
  1 14  1  0
 14 15  1  0
 15 16  1  0
 16 17  1  0
 17 18  1  0
 18 19  1  0
 19 20  2  0
 19 21  1  0
 17 22  1  0
 22 23  1  0
 23 24  2  0
 23 25  1  0
M  END
>  <Name>  (177) 
Oxybis(trimethylenenitrilo)tetraacetic_acid

>  <logK_La_z=3.0_T=25_I=0.1>  (177) 
10.68

$$$$

     RDKit          2D

 26 25  0  0  0  0  0  0  0  0999 V2000
    2.5981   -0.0000    0.0000 O   0  0  0  0  0  0  0  0  0  0  0  0
    1.2990    0.7500    0.0000 C   0  0  0  0  0  0  0  0  0  0  0  0
    0.0000    0.0000    0.0000 C   0  0  0  0  0  0  0  0  0  0  0  0
   -1.2990    0.7500    0.0000 N   0  0  0  0  0  0  0  0  0  0  0  0
   -1.2990    2.2500    0.0000 C   0  0  0  0  0  0  0  0  0  0  0  0
   -2.5981    3.0000    0.0000 C   0  0  0  0  0  0  0  0  0  0  0  0
   -3.8971    2.2500    0.0000 O   0  0  0  0  0  0  0  0  0  0  0  0
   -2.5981    4.5000    0.0000 O   0  0  0  0  0  0  0  0  0  0  0  0
   -2.5981    0.0000    0.0000 C   0  0  0  0  0  0  0  0  0  0  0  0
   -3.8971    0.7500    0.0000 C   0  0  0  0  0  0  0  0  0  0  0  0
   -5.1962    0.0000    0.0000 O   0  0  0  0  0  0  0  0  0  0  0  0
   -6.4952    0.7500    0.0000 C   0  0  0  0  0  0  0  0  0  0  0  0
   -7.7942    0.0000    0.0000 C   0  0  0  0  0  0  0  0  0  0  0  0
   -9.0933    0.7500    0.0000 O   0  0  0  0  0  0  0  0  0  0  0  0
  -10.3923    0.0000    0.0000 C   0  0  0  0  0  0  0  0  0  0  0  0
  -11.6913    0.7500    0.0000 C   0  0  0  0  0  0  0  0  0  0  0  0
  -12.9904    0.0000    0.0000 N   0  0  0  0  0  0  0  0  0  0  0  0
  -14.2894    0.7500    0.0000 C   0  0  0  0  0  0  0  0  0  0  0  0
  -15.5885    0.0000    0.0000 C   0  0  0  0  0  0  0  0  0  0  0  0
  -15.5885   -1.5000    0.0000 O   0  0  0  0  0  0  0  0  0  0  0  0
  -16.8875    0.7500    0.0000 O   0  0  0  0  0  0  0  0  0  0  0  0
  -12.9904   -1.5000    0.0000 C   0  0  0  0  0  0  0  0  0  0  0  0
  -11.6913   -2.2500    0.0000 C   0  0  0  0  0  0  0  0  0  0  0  0
  -10.3923   -1.5000    0.0000 O   0  0  0  0  0  0  0  0  0  0  0  0
  -11.6913   -3.7500    0.0000 O   0  0  0  0  0  0  0  0  0  0  0  0
    1.2990    2.2500    0.0000 O   0  0  0  0  0  0  0  0  0  0  0  0
  1  2  1  0
  2  3  1  0
  3  4  1  0
  4  5  1  0
  5  6  1  0
  6  7  2  0
  6  8  1  0
  4  9  1  0
  9 10  1  0
 10 11  1  0
 11 12  1  0
 12 13  1  0
 13 14  1  0
 14 15  1  0
 15 16  1  0
 16 17  1  0
 17 18  1  0
 18 19  1  0
 19 20  2  0
 19 21  1  0
 17 22  1  0
 22 23  1  0
 23 24  2  0
 23 25  1  0
  2 26  2  0
M  END
>  <Name>  (178) 
Ethylenebis(oxyethylenenitrilo)tetraacetic_acid_(EGTA)

>  <logK_La_z=3.0_T=25_I=0.1>  (178) 
15.67

>  <logK_La_z=3.0_T=20_I=0.1>  (178) 
15.74

$$$$

     RDKit          2D

 23 22  0  0  0  0  0  0  0  0999 V2000
   -1.2990    0.7500    0.0000 S   0  0  0  0  0  0  0  0  0  0  0  0
    0.0000    0.0000    0.0000 C   0  0  0  0  0  0  0  0  0  0  0  0
    1.2990    0.7500    0.0000 C   0  0  0  0  0  0  0  0  0  0  0  0
    2.5981   -0.0000    0.0000 N   0  0  0  0  0  0  0  0  0  0  0  0
    3.8971    0.7500    0.0000 C   0  0  0  0  0  0  0  0  0  0  0  0
    5.1962   -0.0000    0.0000 C   0  0  0  0  0  0  0  0  0  0  0  0
    5.1962   -1.5000    0.0000 O   0  0  0  0  0  0  0  0  0  0  0  0
    6.4952    0.7500    0.0000 O   0  0  0  0  0  0  0  0  0  0  0  0
    2.5981   -1.5000    0.0000 C   0  0  0  0  0  0  0  0  0  0  0  0
    1.2990   -2.2500    0.0000 C   0  0  0  0  0  0  0  0  0  0  0  0
    0.0000   -1.5000    0.0000 O   0  0  0  0  0  0  0  0  0  0  0  0
    1.2990   -3.7500    0.0000 O   0  0  0  0  0  0  0  0  0  0  0  0
   -2.5981    0.0000    0.0000 C   0  0  0  0  0  0  0  0  0  0  0  0
   -3.8971    0.7500    0.0000 C   0  0  0  0  0  0  0  0  0  0  0  0
   -5.1962    0.0000    0.0000 N   0  0  0  0  0  0  0  0  0  0  0  0
   -6.4952    0.7500    0.0000 C   0  0  0  0  0  0  0  0  0  0  0  0
   -7.7942    0.0000    0.0000 C   0  0  0  0  0  0  0  0  0  0  0  0
   -7.7942   -1.5000    0.0000 O   0  0  0  0  0  0  0  0  0  0  0  0
   -9.0933    0.7500    0.0000 O   0  0  0  0  0  0  0  0  0  0  0  0
   -5.1962   -1.5000    0.0000 C   0  0  0  0  0  0  0  0  0  0  0  0
   -3.8971   -2.2500    0.0000 C   0  0  0  0  0  0  0  0  0  0  0  0
   -2.5981   -1.5000    0.0000 O   0  0  0  0  0  0  0  0  0  0  0  0
   -3.8971   -3.7500    0.0000 O   0  0  0  0  0  0  0  0  0  0  0  0
  1  2  1  0
  2  3  1  0
  3  4  1  0
  4  5  1  0
  5  6  1  0
  6  7  2  0
  6  8  1  0
  4  9  1  0
  9 10  1  0
 10 11  2  0
 10 12  1  0
  1 13  1  0
 13 14  1  0
 14 15  1  0
 15 16  1  0
 16 17  1  0
 17 18  2  0
 17 19  1  0
 15 20  1  0
 20 21  1  0
 21 22  2  0
 21 23  1  0
M  END
>  <Name>  (179) 
Thiobis(ethylenenitrilo)tetraacetic_acid_(TEDTA)

>  <logK_La_z=3.0_T=25_I=0.1>  (179) 
12.6

>  <logK_La_z=3.0_T=20_I=0.1>  (179) 
12.8

$$$$

     RDKit          2D

 25 24  0  0  0  0  0  0  0  0999 V2000
    1.2990    0.7500    0.0000 C   0  0  0  0  0  0  0  0  0  0  0  0
    0.0000    0.0000    0.0000 C   0  0  0  0  0  0  0  0  0  0  0  0
    2.5981   -0.0000    0.0000 N   0  0  0  0  0  0  0  0  0  0  0  0
    3.8971    0.7500    0.0000 C   0  0  0  0  0  0  0  0  0  0  0  0
    5.1962   -0.0000    0.0000 C   0  0  0  0  0  0  0  0  0  0  0  0
    6.4952    0.7500    0.0000 N   0  0  0  0  0  0  0  0  0  0  0  0
    7.7942   -0.0000    0.0000 C   0  0  0  0  0  0  0  0  0  0  0  0
    9.0933    0.7500    0.0000 C   0  0  0  0  0  0  0  0  0  0  0  0
    9.0933    2.2500    0.0000 O   0  0  0  0  0  0  0  0  0  0  0  0
   10.3923   -0.0000    0.0000 O   0  0  0  0  0  0  0  0  0  0  0  0
    6.4952    2.2500    0.0000 C   0  0  0  0  0  0  0  0  0  0  0  0
    5.1962    3.0000    0.0000 C   0  0  0  0  0  0  0  0  0  0  0  0
    3.8971    2.2500    0.0000 O   0  0  0  0  0  0  0  0  0  0  0  0
    5.1962    4.5000    0.0000 O   0  0  0  0  0  0  0  0  0  0  0  0
    2.5981   -1.5000    0.0000 C   0  0  0  0  0  0  0  0  0  0  0  0
    3.8971   -2.2500    0.0000 C   0  0  0  0  0  0  0  0  0  0  0  0
    3.8971   -3.7500    0.0000 N   0  0  0  0  0  0  0  0  0  0  0  0
    5.1962   -4.5000    0.0000 C   0  0  0  0  0  0  0  0  0  0  0  0
    5.1962   -6.0000    0.0000 C   0  0  0  0  0  0  0  0  0  0  0  0
    3.8971   -6.7500    0.0000 O   0  0  0  0  0  0  0  0  0  0  0  0
    6.4952   -6.7500    0.0000 O   0  0  0  0  0  0  0  0  0  0  0  0
    2.5981   -4.5000    0.0000 C   0  0  0  0  0  0  0  0  0  0  0  0
    1.2990   -3.7500    0.0000 C   0  0  0  0  0  0  0  0  0  0  0  0
    1.2990   -2.2500    0.0000 O   0  0  0  0  0  0  0  0  0  0  0  0
    0.0000   -4.5000    0.0000 O   0  0  0  0  0  0  0  0  0  0  0  0
  1  2  1  0
  1  3  1  0
  3  4  1  0
  4  5  1  0
  5  6  1  0
  6  7  1  0
  7  8  1  0
  8  9  2  0
  8 10  1  0
  6 11  1  0
 11 12  1  0
 12 13  2  0
 12 14  1  0
  3 15  1  0
 15 16  1  0
 16 17  1  0
 17 18  1  0
 18 19  1  0
 19 20  2  0
 19 21  1  0
 17 22  1  0
 22 23  1  0
 23 24  2  0
 23 25  1  0
M  END
>  <Name>  (180) 
N-Ethyliminobis(ethylenenitrilo)tetraacetic_acid

>  <logK_La_z=3.0_T=25_I=0.1>  (180) 
15.86

$$$$

     RDKit          2D

 29 29  0  0  0  0  0  0  0  0999 V2000
    7.5000   -5.1962    0.0000 O   0  0  0  0  0  0  0  0  0  0  0  0
    8.2500   -3.8971    0.0000 C   0  0  0  0  0  0  0  0  0  0  0  0
    7.5000   -2.5981    0.0000 C   0  0  0  0  0  0  0  0  0  0  0  0
    6.0000   -2.5981    0.0000 N   0  0  0  0  0  0  0  0  0  0  0  0
    5.2500   -3.8971    0.0000 C   0  0  0  0  0  0  0  0  0  0  0  0
    3.7500   -3.8971    0.0000 C   0  0  0  0  0  0  0  0  0  0  0  0
    3.0000   -2.5981    0.0000 O   0  0  0  0  0  0  0  0  0  0  0  0
    3.0000   -5.1962    0.0000 O   0  0  0  0  0  0  0  0  0  0  0  0
    5.2500   -1.2990    0.0000 C   0  0  0  0  0  0  0  0  0  0  0  0
    3.7500   -1.2990    0.0000 C   0  0  0  0  0  0  0  0  0  0  0  0
    3.0000    0.0000    0.0000 N   0  0  0  0  0  0  0  0  0  0  0  0
    1.5000    0.0000    0.0000 C   0  0  0  0  0  0  0  0  0  0  0  0
    0.7500   -1.2990    0.0000 C   0  0  0  0  0  0  0  0  0  0  0  0
   -0.7500   -1.2990    0.0000 C   0  0  0  0  0  0  0  0  0  0  0  0
   -1.5000    0.0000    0.0000 C   0  0  0  0  0  0  0  0  0  0  0  0
   -0.7500    1.2990    0.0000 C   0  0  0  0  0  0  0  0  0  0  0  0
    0.7500    1.2990    0.0000 C   0  0  0  0  0  0  0  0  0  0  0  0
    3.7500    1.2990    0.0000 C   0  0  0  0  0  0  0  0  0  0  0  0
    5.2500    1.2990    0.0000 C   0  0  0  0  0  0  0  0  0  0  0  0
    6.0000    2.5981    0.0000 N   0  0  0  0  0  0  0  0  0  0  0  0
    7.5000    2.5981    0.0000 C   0  0  0  0  0  0  0  0  0  0  0  0
    8.2500    3.8971    0.0000 C   0  0  0  0  0  0  0  0  0  0  0  0
    7.5000    5.1962    0.0000 O   0  0  0  0  0  0  0  0  0  0  0  0
    9.7500    3.8971    0.0000 O   0  0  0  0  0  0  0  0  0  0  0  0
    5.2500    3.8971    0.0000 C   0  0  0  0  0  0  0  0  0  0  0  0
    3.7500    3.8971    0.0000 C   0  0  0  0  0  0  0  0  0  0  0  0
    3.0000    2.5981    0.0000 O   0  0  0  0  0  0  0  0  0  0  0  0
    3.0000    5.1962    0.0000 O   0  0  0  0  0  0  0  0  0  0  0  0
    9.7500   -3.8971    0.0000 O   0  0  0  0  0  0  0  0  0  0  0  0
  1  2  1  0
  2  3  1  0
  3  4  1  0
  4  5  1  0
  5  6  1  0
  6  7  2  0
  6  8  1  0
  4  9  1  0
  9 10  1  0
 10 11  1  0
 11 12  1  0
 12 13  2  0
 13 14  1  0
 14 15  2  0
 15 16  1  0
 16 17  2  0
 11 18  1  0
 18 19  1  0
 19 20  1  0
 20 21  1  0
 21 22  1  0
 22 23  2  0
 22 24  1  0
 20 25  1  0
 25 26  1  0
 26 27  2  0
 26 28  1  0
  2 29  2  0
 17 12  1  0
M  END
>  <Name>  (181) 
N-Phenyliminobis(ethylenenitrilo)tetraacetic_acid

>  <logK_La_z=3.0_T=25_I=0.1>  (181) 
13.1

$$$$

     RDKit          2D

 27 26  0  0  0  0  0  0  0  0999 V2000
    2.5981   -0.0000    0.0000 O   0  0  0  0  0  0  0  0  0  0  0  0
    1.2990    0.7500    0.0000 C   0  0  0  0  0  0  0  0  0  0  0  0
    0.0000    0.0000    0.0000 C   0  0  0  0  0  0  0  0  0  0  0  0
   -1.2990    0.7500    0.0000 N   0  0  0  0  0  0  0  0  0  0  0  0
   -2.5981    0.0000    0.0000 C   0  0  0  0  0  0  0  0  0  0  0  0
   -3.8971    0.7500    0.0000 C   0  0  0  0  0  0  0  0  0  0  0  0
   -5.1962    0.0000    0.0000 N   0  0  0  0  0  0  0  0  0  0  0  0
   -6.4952    0.7500    0.0000 C   0  0  0  0  0  0  0  0  0  0  0  0
   -7.7942    0.0000    0.0000 C   0  0  0  0  0  0  0  0  0  0  0  0
   -7.7942   -1.5000    0.0000 O   0  0  0  0  0  0  0  0  0  0  0  0
   -9.0933    0.7500    0.0000 O   0  0  0  0  0  0  0  0  0  0  0  0
   -5.1962   -1.5000    0.0000 C   0  0  0  0  0  0  0  0  0  0  0  0
   -3.8971   -2.2500    0.0000 C   0  0  0  0  0  0  0  0  0  0  0  0
   -2.5981   -1.5000    0.0000 O   0  0  0  0  0  0  0  0  0  0  0  0
   -3.8971   -3.7500    0.0000 O   0  0  0  0  0  0  0  0  0  0  0  0
   -1.2990    2.2500    0.0000 C   0  0  0  0  0  0  0  0  0  0  0  0
   -2.5981    3.0000    0.0000 C   0  0  0  0  0  0  0  0  0  0  0  0
   -2.5981    4.5000    0.0000 N   0  0  0  0  0  0  0  0  0  0  0  0
   -3.8971    5.2500    0.0000 C   0  0  0  0  0  0  0  0  0  0  0  0
   -3.8971    6.7500    0.0000 C   0  0  0  0  0  0  0  0  0  0  0  0
   -2.5981    7.5000    0.0000 O   0  0  0  0  0  0  0  0  0  0  0  0
   -5.1962    7.5000    0.0000 O   0  0  0  0  0  0  0  0  0  0  0  0
   -1.2990    5.2500    0.0000 C   0  0  0  0  0  0  0  0  0  0  0  0
    0.0000    4.5000    0.0000 C   0  0  0  0  0  0  0  0  0  0  0  0
   -0.0000    3.0000    0.0000 O   0  0  0  0  0  0  0  0  0  0  0  0
    1.2990    5.2500    0.0000 O   0  0  0  0  0  0  0  0  0  0  0  0
    1.2990    2.2500    0.0000 O   0  0  0  0  0  0  0  0  0  0  0  0
  1  2  1  0
  2  3  1  0
  3  4  1  0
  4  5  1  0
  5  6  1  0
  6  7  1  0
  7  8  1  0
  8  9  1  0
  9 10  2  0
  9 11  1  0
  7 12  1  0
 12 13  1  0
 13 14  2  0
 13 15  1  0
  4 16  1  0
 16 17  1  0
 17 18  1  0
 18 19  1  0
 19 20  1  0
 20 21  2  0
 20 22  1  0
 18 23  1  0
 23 24  1  0
 24 25  2  0
 24 26  1  0
  2 27  2  0
M  END
>  <Name>  (182) 
Diethylenetrinitrilopentaacetic_acid_(DTPA)

>  <logK_La_z=3.0_T=25_I=0.1>  (182) 
19.49

>  <logK_La_z=3.0_T=25_I=0.5>  (182) 
18.23

>  <logK_La_z=3.0_T=25_I=0.4>  (182) 
19.5

$$$$

     RDKit          2D

 30 29  0  0  0  0  0  0  0  0999 V2000
    5.1962    7.5000    0.0000 C   0  0  0  0  0  0  0  0  0  0  0  0
    3.8971    8.2500    0.0000 O   0  0  0  0  0  0  0  0  0  0  0  0
    6.4952    8.2500    0.0000 O   0  0  0  0  0  0  0  0  0  0  0  0
    5.1962    6.0000    0.0000 C   0  0  0  0  0  0  0  0  0  0  0  0
    3.8971    5.2500    0.0000 N   0  0  0  0  0  0  0  0  0  0  0  0
    3.8971    3.7500    0.0000 C   0  0  0  0  0  0  0  0  0  0  0  0
    2.5981    3.0000    0.0000 C   0  0  0  0  0  0  0  0  0  0  0  0
    2.5981    1.5000    0.0000 C   0  0  0  0  0  0  0  0  0  0  0  0
    1.2990    0.7500    0.0000 N   0  0  0  0  0  4  0  0  0  0  0  0
    0.0000    0.0000    0.0000 C   0  0  0  0  0  0  0  0  0  0  0  0
    2.0490   -0.5490    0.0000 C   0  0  0  0  0  0  0  0  0  0  0  0
    3.5490   -0.5490    0.0000 C   0  0  0  0  0  0  0  0  0  0  0  0
    4.2990   -1.8481    0.0000 C   0  0  0  0  0  0  0  0  0  0  0  0
    5.7990   -1.8481    0.0000 N   0  0  0  0  0  0  0  0  0  0  0  0
    6.5490   -3.1471    0.0000 C   0  0  0  0  0  0  0  0  0  0  0  0
    8.0490   -3.1471    0.0000 C   0  0  0  0  0  0  0  0  0  0  0  0
    8.7990   -1.8481    0.0000 O   0  0  0  0  0  0  0  0  0  0  0  0
    8.7990   -4.4462    0.0000 O   0  0  0  0  0  0  0  0  0  0  0  0
    6.5490   -0.5490    0.0000 C   0  0  0  0  0  0  0  0  0  0  0  0
    5.7990    0.7500    0.0000 C   0  0  0  0  0  0  0  0  0  0  0  0
    4.2990    0.7500    0.0000 O   0  0  0  0  0  0  0  0  0  0  0  0
    6.5490    2.0490    0.0000 O   0  0  0  0  0  0  0  0  0  0  0  0
    0.5490    2.0490    0.0000 C   0  0  0  0  0  0  0  0  0  0  0  0
   -0.9510    2.0490    0.0000 C   0  0  0  0  0  0  0  0  0  0  0  0
   -1.7010    0.7500    0.0000 O   0  0  0  0  0  0  0  0  0  0  0  0
   -1.7010    3.3481    0.0000 O   0  0  0  0  0  1  0  0  0  0  0  0
    2.5981    6.0000    0.0000 C   0  0  0  0  0  0  0  0  0  0  0  0
    1.2990    5.2500    0.0000 C   0  0  0  0  0  0  0  0  0  0  0  0
   -0.0000    6.0000    0.0000 O   0  0  0  0  0  0  0  0  0  0  0  0
    1.2990    3.7500    0.0000 O   0  0  0  0  0  0  0  0  0  0  0  0
  1  2  2  0
  1  3  1  0
  1  4  1  0
  4  5  1  0
  5  6  1  0
  6  7  1  0
  7  8  1  0
  8  9  1  0
  9 10  1  0
  9 11  1  0
 11 12  1  0
 12 13  1  0
 13 14  1  0
 14 15  1  0
 15 16  1  0
 16 17  2  0
 16 18  1  0
 14 19  1  0
 19 20  1  0
 20 21  2  0
 20 22  1  0
  9 23  1  0
 23 24  1  0
 24 25  2  0
 24 26  1  0
  5 27  1  0
 27 28  1  0
 28 29  2  0
 28 30  1  0
M  CHG  2   9   1  26  -1
M  END
>  <Name>  (183) 
{Bis[3-(bis(carboxymethyl)amino)propyl]methylammonio}acetate

>  <logK_La_z=3.0_T=25_I=0.1>  (183) 
7.58

$$$$

     RDKit          2D

 34 33  0  0  0  0  0  0  0  0999 V2000
    2.5981   -0.0000    0.0000 O   0  0  0  0  0  0  0  0  0  0  0  0
    1.2990    0.7500    0.0000 C   0  0  0  0  0  0  0  0  0  0  0  0
    1.2990    2.2500    0.0000 O   0  0  0  0  0  0  0  0  0  0  0  0
    0.0000    0.0000    0.0000 C   0  0  0  0  0  0  0  0  0  0  0  0
   -1.2990    0.7500    0.0000 N   0  0  0  0  0  0  0  0  0  0  0  0
   -2.5981    0.0000    0.0000 C   0  0  0  0  0  0  0  0  0  0  0  0
   -3.8971    0.7500    0.0000 C   0  0  0  0  0  0  0  0  0  0  0  0
   -5.1962    0.0000    0.0000 N   0  0  0  0  0  0  0  0  0  0  0  0
   -6.4952    0.7500    0.0000 C   0  0  0  0  0  0  0  0  0  0  0  0
   -7.7942    0.0000    0.0000 C   0  0  0  0  0  0  0  0  0  0  0  0
   -9.0933    0.7500    0.0000 N   0  0  0  0  0  0  0  0  0  0  0  0
  -10.3923    0.0000    0.0000 C   0  0  0  0  0  0  0  0  0  0  0  0
  -11.6913    0.7500    0.0000 C   0  0  0  0  0  0  0  0  0  0  0  0
  -12.9904    0.0000    0.0000 O   0  0  0  0  0  0  0  0  0  0  0  0
  -11.6913    2.2500    0.0000 O   0  0  0  0  0  0  0  0  0  0  0  0
   -9.0933    2.2500    0.0000 C   0  0  0  0  0  0  0  0  0  0  0  0
   -7.7942    3.0000    0.0000 C   0  0  0  0  0  0  0  0  0  0  0  0
   -7.7942    4.5000    0.0000 O   0  0  0  0  0  0  0  0  0  0  0  0
   -6.4952    2.2500    0.0000 O   0  0  0  0  0  0  0  0  0  0  0  0
   -5.1962   -1.5000    0.0000 C   0  0  0  0  0  0  0  0  0  0  0  0
   -6.4952   -2.2500    0.0000 C   0  0  0  0  0  0  0  0  0  0  0  0
   -6.4952   -3.7500    0.0000 O   0  0  0  0  0  0  0  0  0  0  0  0
   -7.7942   -1.5000    0.0000 O   0  0  0  0  0  0  0  0  0  0  0  0
   -1.2990    2.2500    0.0000 C   0  0  0  0  0  0  0  0  0  0  0  0
   -2.5981    3.0000    0.0000 C   0  0  0  0  0  0  0  0  0  0  0  0
   -2.5981    4.5000    0.0000 N   0  0  0  0  0  0  0  0  0  0  0  0
   -3.8971    5.2500    0.0000 C   0  0  0  0  0  0  0  0  0  0  0  0
   -3.8971    6.7500    0.0000 C   0  0  0  0  0  0  0  0  0  0  0  0
   -5.1962    7.5000    0.0000 O   0  0  0  0  0  0  0  0  0  0  0  0
   -2.5981    7.5000    0.0000 O   0  0  0  0  0  0  0  0  0  0  0  0
   -1.2990    5.2500    0.0000 C   0  0  0  0  0  0  0  0  0  0  0  0
    0.0000    4.5000    0.0000 C   0  0  0  0  0  0  0  0  0  0  0  0
    1.2990    5.2500    0.0000 O   0  0  0  0  0  0  0  0  0  0  0  0
   -0.0000    3.0000    0.0000 O   0  0  0  0  0  0  0  0  0  0  0  0
  1  2  1  0
  2  3  2  0
  2  4  1  0
  4  5  1  0
  5  6  1  0
  6  7  1  0
  7  8  1  0
  8  9  1  0
  9 10  1  0
 10 11  1  0
 11 12  1  0
 12 13  1  0
 13 14  1  0
 13 15  2  0
 11 16  1  0
 16 17  1  0
 17 18  1  0
 17 19  2  0
  8 20  1  0
 20 21  1  0
 21 22  1  0
 21 23  2  0
  5 24  1  0
 24 25  1  0
 25 26  1  0
 26 27  1  0
 27 28  1  0
 28 29  1  0
 28 30  2  0
 26 31  1  0
 31 32  1  0
 32 33  1  0
 32 34  2  0
M  END
>  <Name>  (184) 
Triethylenetetranitrilohexaacetic_acid_(TTHA)

>  <logK_La_z=3.0_T=25_I=0.1>  (184) 
22.6

$$$$

     RDKit          2D

 24 24  0  0  0  0  0  0  0  0999 V2000
    1.5000   -2.5981    0.0000 O   0  0  0  0  0  0  0  0  0  0  0  0
    3.0000   -2.5981    0.0000 C   0  0  0  0  0  0  0  0  0  0  0  0
    3.7500   -1.2990    0.0000 C   0  0  0  0  0  0  0  0  0  0  0  0
    3.0000    0.0000    0.0000 N   0  0  0  0  0  0  0  0  0  0  0  0
    3.7500    1.2990    0.0000 C   0  0  0  0  0  0  0  0  0  0  0  0
    5.2500    1.2990    0.0000 C   0  0  0  0  0  0  0  0  0  0  0  0
    6.0000    0.0000    0.0000 O   0  0  0  0  0  0  0  0  0  0  0  0
    6.0000    2.5981    0.0000 O   0  0  0  0  0  0  0  0  0  0  0  0
    1.5000    0.0000    0.0000 C   0  0  0  0  0  0  0  0  0  0  0  0
    0.7500   -1.2990    0.0000 C   0  0  0  0  0  0  0  0  0  0  0  0
   -0.7500   -1.2990    0.0000 C   0  0  0  0  0  0  0  0  0  0  0  0
   -1.5000    0.0000    0.0000 C   0  0  0  0  0  0  0  0  0  0  0  0
   -0.7500    1.2990    0.0000 C   0  0  0  0  0  0  0  0  0  0  0  0
    0.7500    1.2990    0.0000 C   0  0  0  0  0  0  0  0  0  0  0  0
    1.5000    2.5981    0.0000 N   0  0  0  0  0  0  0  0  0  0  0  0
    0.7500    3.8971    0.0000 C   0  0  0  0  0  0  0  0  0  0  0  0
   -0.7500    3.8971    0.0000 C   0  0  0  0  0  0  0  0  0  0  0  0
   -1.5000    2.5981    0.0000 O   0  0  0  0  0  0  0  0  0  0  0  0
   -1.5000    5.1962    0.0000 O   0  0  0  0  0  0  0  0  0  0  0  0
    3.0000    2.5981    0.0000 C   0  0  0  0  0  0  0  0  0  0  0  0
    3.7500    3.8971    0.0000 C   0  0  0  0  0  0  0  0  0  0  0  0
    3.0000    5.1962    0.0000 O   0  0  0  0  0  0  0  0  0  0  0  0
    5.2500    3.8971    0.0000 O   0  0  0  0  0  0  0  0  0  0  0  0
    3.7500   -3.8971    0.0000 O   0  0  0  0  0  0  0  0  0  0  0  0
  1  2  1  0
  2  3  1  0
  3  4  1  0
  4  5  1  0
  5  6  1  0
  6  7  2  0
  6  8  1  0
  4  9  1  0
  9 10  2  0
 10 11  1  0
 11 12  2  0
 12 13  1  0
 13 14  2  0
 14 15  1  0
 15 16  1  0
 16 17  1  0
 17 18  2  0
 17 19  1  0
 15 20  1  0
 20 21  1  0
 21 22  2  0
 21 23  1  0
  2 24  2  0
 14  9  1  0
M  END
>  <Name>  (185) 
1,2-Phenylenedinitrilotetraacetic_acid

>  <logK_La_z=3.0_T=25_I=1.0>  (185) 
11.39

$$$$

     RDKit          2D

  9  9  0  0  0  0  0  0  0  0999 V2000
    3.7500   -1.2990    0.0000 O   0  0  0  0  0  0  0  0  0  0  0  0
    3.0000    0.0000    0.0000 C   0  0  0  0  0  0  0  0  0  0  0  0
    1.5000    0.0000    0.0000 C   0  0  0  0  0  0  0  0  0  0  0  0
    0.7500   -1.2990    0.0000 C   0  0  0  0  0  0  0  0  0  0  0  0
   -0.7500   -1.2990    0.0000 N   0  0  0  0  0  0  0  0  0  0  0  0
   -1.5000    0.0000    0.0000 C   0  0  0  0  0  0  0  0  0  0  0  0
   -0.7500    1.2990    0.0000 C   0  0  0  0  0  0  0  0  0  0  0  0
    0.7500    1.2990    0.0000 N   0  0  0  0  0  0  0  0  0  0  0  0
    3.7500    1.2990    0.0000 O   0  0  0  0  0  0  0  0  0  0  0  0
  1  2  1  0
  2  3  1  0
  3  4  2  0
  4  5  1  0
  5  6  2  0
  6  7  1  0
  7  8  2  0
  2  9  2  0
  8  3  1  0
M  END
>  <Name>  (186) 
1,4-Diazine-2-carboxylic_acid_(Pyrazinecarboxylic_acid)

>  <logK_La_z=3.0_T=25_I=1.0>  (186) 
2.3

$$$$

     RDKit          2D

 10 10  0  0  0  0  0  0  0  0999 V2000
    3.0000    0.0000    0.0000 O   0  0  0  0  0  1  0  0  0  0  0  0
    1.5000    0.0000    0.0000 N   0  0  0  0  0  4  0  0  0  0  0  0
    0.7500   -1.2990    0.0000 C   0  0  0  0  0  0  0  0  0  0  0  0
   -0.7500   -1.2990    0.0000 C   0  0  0  0  0  0  0  0  0  0  0  0
   -1.5000    0.0000    0.0000 C   0  0  0  0  0  0  0  0  0  0  0  0
   -0.7500    1.2990    0.0000 C   0  0  0  0  0  0  0  0  0  0  0  0
    0.7500    1.2990    0.0000 C   0  0  0  0  0  0  0  0  0  0  0  0
    1.5000    2.5981    0.0000 C   0  0  0  0  0  0  0  0  0  0  0  0
    0.7500    3.8971    0.0000 O   0  0  0  0  0  0  0  0  0  0  0  0
    3.0000    2.5981    0.0000 O   0  0  0  0  0  0  0  0  0  0  0  0
  1  2  1  0
  2  3  2  0
  3  4  1  0
  4  5  2  0
  5  6  1  0
  6  7  2  0
  7  8  1  0
  8  9  2  0
  8 10  1  0
  7  2  1  0
M  CHG  2   1  -1   2   1
M  END
>  <Name>  (187) 
Pyridine-2-carboxylic_acid_N-oxide

>  <logK_La_z=3.0_T=25_I=2.0>  (187) 
2.53

$$$$

     RDKit          2D

 12 12  0  0  0  0  0  0  0  0999 V2000
    1.5000    0.0000    0.0000 N   0  0  0  0  0  0  0  0  0  0  0  0
    0.7500   -1.2990    0.0000 C   0  0  0  0  0  0  0  0  0  0  0  0
    1.5000   -2.5981    0.0000 C   0  0  0  0  0  0  0  0  0  0  0  0
    3.0000   -2.5981    0.0000 O   0  0  0  0  0  0  0  0  0  0  0  0
    0.7500   -3.8971    0.0000 O   0  0  0  0  0  0  0  0  0  0  0  0
   -0.7500   -1.2990    0.0000 C   0  0  0  0  0  0  0  0  0  0  0  0
   -1.5000   -2.5981    0.0000 C   0  0  0  0  0  0  0  0  0  0  0  0
   -0.7500   -3.8971    0.0000 O   0  0  0  0  0  0  0  0  0  0  0  0
   -3.0000   -2.5981    0.0000 O   0  0  0  0  0  0  0  0  0  0  0  0
   -1.5000    0.0000    0.0000 C   0  0  0  0  0  0  0  0  0  0  0  0
   -0.7500    1.2990    0.0000 C   0  0  0  0  0  0  0  0  0  0  0  0
    0.7500    1.2990    0.0000 C   0  0  0  0  0  0  0  0  0  0  0  0
  1  2  2  0
  2  3  1  0
  3  4  1  0
  3  5  2  0
  2  6  1  0
  6  7  1  0
  7  8  2  0
  7  9  1  0
  6 10  2  0
 10 11  1  0
 11 12  2  0
 12  1  1  0
M  END
>  <Name>  (188) 
Pyridine-2,3-dicarboxylic_acid_(Quinolinic_acid)

>  <logK_La_z=3.0_T=25_I=0.5>  (188) 
2.96

$$$$

     RDKit          2D

 12 12  0  0  0  0  0  0  0  0999 V2000
    1.5000    0.0000    0.0000 N   0  0  0  0  0  0  0  0  0  0  0  0
    0.7500   -1.2990    0.0000 C   0  0  0  0  0  0  0  0  0  0  0  0
    1.5000   -2.5981    0.0000 C   0  0  0  0  0  0  0  0  0  0  0  0
    0.7500   -3.8971    0.0000 O   0  0  0  0  0  0  0  0  0  0  0  0
    3.0000   -2.5981    0.0000 O   0  0  0  0  0  0  0  0  0  0  0  0
   -0.7500   -1.2990    0.0000 C   0  0  0  0  0  0  0  0  0  0  0  0
   -1.5000    0.0000    0.0000 C   0  0  0  0  0  0  0  0  0  0  0  0
   -0.7500    1.2990    0.0000 C   0  0  0  0  0  0  0  0  0  0  0  0
    0.7500    1.2990    0.0000 C   0  0  0  0  0  0  0  0  0  0  0  0
    1.5000    2.5981    0.0000 C   0  0  0  0  0  0  0  0  0  0  0  0
    3.0000    2.5981    0.0000 O   0  0  0  0  0  0  0  0  0  0  0  0
    0.7500    3.8971    0.0000 O   0  0  0  0  0  0  0  0  0  0  0  0
  1  2  2  0
  2  3  1  0
  3  4  1  0
  3  5  2  0
  2  6  1  0
  6  7  2  0
  7  8  1  0
  8  9  2  0
  9 10  1  0
 10 11  1  0
 10 12  2  0
  9  1  1  0
M  END
>  <Name>  (189) 
Pyridine-2,6-dicarboxylic_acid_(Dipicolinic_acid)

>  <logK_La_z=3.0_T=25_I=0.5>  (189) 
7.94

$$$$

     RDKit          2D

 13 13  0  0  0  0  0  0  0  0999 V2000
    3.7500   -1.2990    0.0000 O   0  0  0  0  0  0  0  0  0  0  0  0
    3.0000    0.0000    0.0000 C   0  0  0  0  0  0  0  0  0  0  0  0
    1.5000    0.0000    0.0000 C   0  0  0  0  0  0  0  0  0  0  0  0
    0.7500   -1.2990    0.0000 C   0  0  0  0  0  0  0  0  0  0  0  0
   -0.7500   -1.2990    0.0000 C   0  0  0  0  0  0  0  0  0  0  0  0
   -1.5000    0.0000    0.0000 C   0  0  0  0  0  0  0  0  0  0  0  0
   -0.7500    1.2990    0.0000 C   0  0  0  0  0  0  0  0  0  0  0  0
   -1.5000    2.5981    0.0000 C   0  0  0  0  0  0  0  0  0  0  0  0
   -3.0000    2.5981    0.0000 O   0  0  0  0  0  0  0  0  0  0  0  0
   -0.7500    3.8971    0.0000 O   0  0  0  0  0  0  0  0  0  0  0  0
    0.7500    1.2990    0.0000 N   0  0  0  0  0  0  0  0  0  0  0  0
   -1.5000   -2.5981    0.0000 N   0  0  0  0  0  0  0  0  0  0  0  0
    3.7500    1.2990    0.0000 O   0  0  0  0  0  0  0  0  0  0  0  0
  1  2  1  0
  2  3  1  0
  3  4  2  0
  4  5  1  0
  5  6  2  0
  6  7  1  0
  7  8  1  0
  8  9  2  0
  8 10  1  0
  7 11  2  0
  5 12  1  0
  2 13  2  0
 11  3  1  0
M  END
>  <Name>  (190) 
4-Aminopyridine-2,6-dicarboxylic_acid

>  <logK_La_z=3.0_T=20_I=0.1>  (190) 
9.6

$$$$

     RDKit          2D

 20 19  0  0  0  0  0  0  0  0999 V2000
    9.0933    0.7500    0.0000 C   0  0  0  0  0  0  0  0  0  0  0  0
    7.7942   -0.0000    0.0000 N   0  0  0  0  0  0  0  0  0  0  0  0
    6.4952    0.7500    0.0000 C   0  0  0  0  0  0  0  0  0  0  0  0
    5.1962   -0.0000    0.0000 C   0  0  0  0  0  0  0  0  0  0  0  0
    3.8971    0.7500    0.0000 N   0  0  0  0  0  0  0  0  0  0  0  0
    2.5981   -0.0000    0.0000 C   0  0  0  0  0  0  0  0  0  0  0  0
    1.2990    0.7500    0.0000 C   0  0  0  0  0  0  0  0  0  0  0  0
    1.2990    2.2500    0.0000 O   0  0  0  0  0  0  0  0  0  0  0  0
    0.0000    0.0000    0.0000 C   0  0  0  0  0  0  0  0  0  0  0  0
    3.8971    2.2500    0.0000 C   0  0  0  0  0  0  0  0  0  0  0  0
    5.1962    3.0000    0.0000 C   0  0  0  0  0  0  0  0  0  0  0  0
    6.4952    2.2500    0.0000 O   0  0  0  0  0  0  0  0  0  0  0  0
    5.1962    4.5000    0.0000 C   0  0  0  0  0  0  0  0  0  0  0  0
    7.7942   -1.5000    0.0000 C   0  0  0  0  0  0  0  0  0  0  0  0
    9.0933   -2.2500    0.0000 C   0  0  0  0  0  0  0  0  0  0  0  0
   10.3923   -1.5000    0.0000 O   0  0  0  0  0  0  0  0  0  0  0  0
    9.0933   -3.7500    0.0000 C   0  0  0  0  0  0  0  0  0  0  0  0
    9.0933    2.2500    0.0000 C   0  0  0  0  0  0  0  0  0  0  0  0
    7.7942    3.0000    0.0000 O   0  0  0  0  0  0  0  0  0  0  0  0
   10.3923    3.0000    0.0000 C   0  0  0  0  0  0  0  0  0  0  0  0
  1  2  1  0
  2  3  1  0
  3  4  1  0
  4  5  1  0
  5  6  1  0
  6  7  1  0
  7  8  1  0
  7  9  1  0
  5 10  1  0
 10 11  1  0
 11 12  1  0
 11 13  1  0
  2 14  1  0
 14 15  1  0
 15 16  1  0
 15 17  1  0
  1 18  1  0
 18 19  1  0
 18 20  1  0
M  END
>  <Name>  (191) 
DL-Ethylenedinitrilotetrapropan-2-ol_(N,N,N',N'-Tetrakis(2-hydroxypropyl)ethylenediamine)

>  <logK_La_z=3.0_T=25_I=0.1>  (191) 
2.9

$$$$

     RDKit          2D

 18 18  0  0  0  0  0  0  0  0999 V2000
    4.3191    0.0000    0.0000 N   0  0  0  0  0  0  0  0  0  0  0  0
    4.0586   -1.4772    0.0000 C   0  0  0  0  0  0  0  0  0  0  0  0
    3.3086   -2.7762    0.0000 C   0  0  0  0  0  0  0  0  0  0  0  0
    2.1595   -3.7404    0.0000 N   0  0  0  0  0  0  0  0  0  0  0  0
    0.7500   -4.2535    0.0000 C   0  0  0  0  0  0  0  0  0  0  0  0
   -0.7500   -4.2535    0.0000 C   0  0  0  0  0  0  0  0  0  0  0  0
   -2.1595   -3.7404    0.0000 N   0  0  0  0  0  0  0  0  0  0  0  0
   -3.3086   -2.7762    0.0000 C   0  0  0  0  0  0  0  0  0  0  0  0
   -4.0586   -1.4772    0.0000 C   0  0  0  0  0  0  0  0  0  0  0  0
   -4.3191    0.0000    0.0000 N   0  0  0  0  0  0  0  0  0  0  0  0
   -4.0586    1.4772    0.0000 C   0  0  0  0  0  0  0  0  0  0  0  0
   -3.3086    2.7762    0.0000 C   0  0  0  0  0  0  0  0  0  0  0  0
   -2.1595    3.7404    0.0000 N   0  0  0  0  0  0  0  0  0  0  0  0
   -0.7500    4.2535    0.0000 C   0  0  0  0  0  0  0  0  0  0  0  0
    0.7500    4.2535    0.0000 C   0  0  0  0  0  0  0  0  0  0  0  0
    2.1595    3.7404    0.0000 N   0  0  0  0  0  0  0  0  0  0  0  0
    3.3086    2.7762    0.0000 C   0  0  0  0  0  0  0  0  0  0  0  0
    4.0586    1.4772    0.0000 C   0  0  0  0  0  0  0  0  0  0  0  0
  1  2  1  0
  2  3  1  0
  3  4  1  0
  4  5  1  0
  5  6  1  0
  6  7  1  0
  7  8  1  0
  8  9  1  0
  9 10  1  0
 10 11  1  0
 11 12  1  0
 12 13  1  0
 13 14  1  0
 14 15  1  0
 15 16  1  0
 16 17  1  0
 17 18  1  0
 18  1  1  0
M  END
>  <Name>  (192) 
1,4,7,10,13,16-Hexaazacyclooctadecane_([18]aneN6)

>  <logK_La_z=3.0_T=25_I=0.1>  (192) 
5.7

$$$$

     RDKit          2D

 32 34  0  0  0  0  0  0  0  0999 V2000
    4.5796   -4.4316    0.0000 O   0  0  0  0  0  0  0  0  0  0  0  0
    5.7286   -3.4675    0.0000 C   0  0  0  0  0  0  0  0  0  0  0  0
    5.4681   -1.9902    0.0000 C   0  0  0  0  0  0  0  0  0  0  0  0
    6.6172   -1.0261    0.0000 C   0  0  0  0  0  0  0  0  0  0  0  0
    8.0268   -1.5391    0.0000 C   0  0  0  0  0  0  0  0  0  0  0  0
    8.2872   -3.0163    0.0000 C   0  0  0  0  0  0  0  0  0  0  0  0
    7.1382   -3.9805    0.0000 C   0  0  0  0  0  0  0  0  0  0  0  0
    4.0586   -1.4772    0.0000 N   0  0  0  0  0  0  0  0  0  0  0  0
    4.3191    0.0000    0.0000 C   0  0  0  0  0  0  0  0  0  0  0  0
    4.0586    1.4772    0.0000 C   0  0  0  0  0  0  0  0  0  0  0  0
    3.3086    2.7762    0.0000 O   0  0  0  0  0  0  0  0  0  0  0  0
    2.1595    3.7404    0.0000 C   0  0  0  0  0  0  0  0  0  0  0  0
    0.7500    4.2535    0.0000 C   0  0  0  0  0  0  0  0  0  0  0  0
   -0.7500    4.2535    0.0000 O   0  0  0  0  0  0  0  0  0  0  0  0
   -2.1595    3.7404    0.0000 C   0  0  0  0  0  0  0  0  0  0  0  0
   -3.3086    2.7762    0.0000 C   0  0  0  0  0  0  0  0  0  0  0  0
   -4.0586    1.4772    0.0000 N   0  0  0  0  0  0  0  0  0  0  0  0
   -4.3191    0.0000    0.0000 C   0  0  0  0  0  0  0  0  0  0  0  0
   -4.0586   -1.4772    0.0000 C   0  0  0  0  0  0  0  0  0  0  0  0
   -3.3086   -2.7762    0.0000 O   0  0  0  0  0  0  0  0  0  0  0  0
   -2.1595   -3.7404    0.0000 C   0  0  0  0  0  0  0  0  0  0  0  0
   -0.7500   -4.2535    0.0000 C   0  0  0  0  0  0  0  0  0  0  0  0
    0.7500   -4.2535    0.0000 O   0  0  0  0  0  0  0  0  0  0  0  0
    2.1595   -3.7404    0.0000 C   0  0  0  0  0  0  0  0  0  0  0  0
    3.3086   -2.7762    0.0000 C   0  0  0  0  0  0  0  0  0  0  0  0
   -5.4681    1.9902    0.0000 C   0  0  0  0  0  0  0  0  0  0  0  0
   -5.7286    3.4675    0.0000 C   0  0  0  0  0  0  0  0  0  0  0  0
   -7.1382    3.9805    0.0000 C   0  0  0  0  0  0  0  0  0  0  0  0
   -8.2872    3.0163    0.0000 C   0  0  0  0  0  0  0  0  0  0  0  0
   -8.0268    1.5391    0.0000 C   0  0  0  0  0  0  0  0  0  0  0  0
   -6.6172    1.0261    0.0000 C   0  0  0  0  0  0  0  0  0  0  0  0
   -4.5796    4.4316    0.0000 O   0  0  0  0  0  0  0  0  0  0  0  0
  1  2  1  0
  2  3  1  0
  3  4  1  0
  4  5  1  0
  5  6  1  0
  6  7  1  0
  3  8  1  0
  8  9  1  0
  9 10  1  0
 10 11  1  0
 11 12  1  0
 12 13  1  0
 13 14  1  0
 14 15  1  0
 15 16  1  0
 16 17  1  0
 17 18  1  0
 18 19  1  0
 19 20  1  0
 20 21  1  0
 21 22  1  0
 22 23  1  0
 23 24  1  0
 24 25  1  0
 26 17  1  6
 26 27  1  0
 27 28  1  0
 28 29  1  0
 29 30  1  0
 30 31  1  0
 27 32  1  1
  7  2  1  0
 25  8  1  0
 31 26  1  0
M  END
>  <Name>  (193) 
trans-7,16-Bis(2-hydroxycyclohexyl)-1,4,10,13-tetraoxa-7,16-diazacyclooctadecane

>  <logK_La_z=3.0_T=25_I=0.1>  (193) 
4.09

$$$$

     RDKit          2D

 23 24  0  0  0  0  0  0  0  0999 V2000
    3.6073    0.0000    0.0000 O   0  0  0  0  0  0  0  0  0  0  0  0
    3.2954    1.4672    0.0000 C   0  0  0  0  0  0  0  0  0  0  0  0
    2.4138    2.6807    0.0000 C   0  0  0  0  0  0  0  0  0  0  0  0
    1.1147    3.4307    0.0000 N   0  0  0  0  0  0  0  0  0  0  0  0
   -0.3771    3.5875    0.0000 C   0  0  0  0  0  0  0  0  0  0  0  0
   -1.8037    3.1240    0.0000 C   0  0  0  0  0  0  0  0  0  0  0  0
   -2.9184    2.1203    0.0000 O   0  0  0  0  0  0  0  0  0  0  0  0
   -3.5285    0.7500    0.0000 C   0  0  0  0  0  0  0  0  0  0  0  0
   -3.5285   -0.7500    0.0000 C   0  0  0  0  0  0  0  0  0  0  0  0
   -2.9184   -2.1203    0.0000 O   0  0  0  0  0  0  0  0  0  0  0  0
   -1.8037   -3.1240    0.0000 C   0  0  0  0  0  0  0  0  0  0  0  0
   -0.3771   -3.5875    0.0000 C   0  0  0  0  0  0  0  0  0  0  0  0
    1.1147   -3.4307    0.0000 N   0  0  0  0  0  0  0  0  0  0  0  0
    2.6065   -3.5875    0.0000 C   0  0  0  0  0  0  0  0  0  0  0  0
    4.0331   -3.1240    0.0000 C   0  0  0  0  0  0  0  0  0  0  0  0
    5.1478   -2.1203    0.0000 O   0  0  0  0  0  0  0  0  0  0  0  0
    5.7579   -0.7500    0.0000 C   0  0  0  0  0  0  0  0  0  0  0  0
    5.7579    0.7500    0.0000 C   0  0  0  0  0  0  0  0  0  0  0  0
    5.1478    2.1203    0.0000 O   0  0  0  0  0  0  0  0  0  0  0  0
    4.0331    3.1240    0.0000 C   0  0  0  0  0  0  0  0  0  0  0  0
    2.6065    3.5875    0.0000 C   0  0  0  0  0  0  0  0  0  0  0  0
    2.4138   -2.6807    0.0000 C   0  0  0  0  0  0  0  0  0  0  0  0
    3.2954   -1.4672    0.0000 C   0  0  0  0  0  0  0  0  0  0  0  0
  1  2  1  0
  2  3  1  0
  3  4  1  0
  4  5  1  0
  5  6  1  0
  6  7  1  0
  7  8  1  0
  8  9  1  0
  9 10  1  0
 10 11  1  0
 11 12  1  0
 12 13  1  0
 13 14  1  0
 14 15  1  0
 15 16  1  0
 16 17  1  0
 17 18  1  0
 18 19  1  0
 19 20  1  0
 20 21  1  0
 13 22  1  0
 22 23  1  0
 23  1  1  0
 21  4  1  0
M  END
>  <Name>  (194) 
4,7,13,16,21-Pentaoxa-1,10-diazabicyclo[8.8.5]tricosane_([2.2.1]cryptand)

>  <logK_La_z=3.0_T=25_I=0.5>  (194) 
6.59

$$$$

     RDKit          2D

 26 27  0  0  0  0  0  0  0  0999 V2000
    4.3191    0.0000    0.0000 O   0  0  0  0  0  0  0  0  0  0  0  0
    4.0586   -1.4772    0.0000 C   0  0  0  0  0  0  0  0  0  0  0  0
    3.3086   -2.7762    0.0000 C   0  0  0  0  0  0  0  0  0  0  0  0
    2.1595   -3.7404    0.0000 O   0  0  0  0  0  0  0  0  0  0  0  0
    0.7500   -4.2535    0.0000 C   0  0  0  0  0  0  0  0  0  0  0  0
   -0.7500   -4.2535    0.0000 C   0  0  0  0  0  0  0  0  0  0  0  0
   -2.1595   -3.7404    0.0000 N   0  0  0  0  0  0  0  0  0  0  0  0
   -3.3086   -2.7762    0.0000 C   0  0  0  0  0  0  0  0  0  0  0  0
   -4.0586   -1.4772    0.0000 C   0  0  0  0  0  0  0  0  0  0  0  0
   -4.3191    0.0000    0.0000 O   0  0  0  0  0  0  0  0  0  0  0  0
   -4.0586    1.4772    0.0000 C   0  0  0  0  0  0  0  0  0  0  0  0
   -3.3086    2.7762    0.0000 C   0  0  0  0  0  0  0  0  0  0  0  0
   -2.1595    3.7404    0.0000 O   0  0  0  0  0  0  0  0  0  0  0  0
   -0.7500    4.2535    0.0000 C   0  0  0  0  0  0  0  0  0  0  0  0
    0.7500    4.2535    0.0000 C   0  0  0  0  0  0  0  0  0  0  0  0
    2.1595    3.7404    0.0000 N   0  0  0  0  0  0  0  0  0  0  0  0
    3.3086    2.7762    0.0000 C   0  0  0  0  0  0  0  0  0  0  0  0
    4.0586    1.4772    0.0000 C   0  0  0  0  0  0  0  0  0  0  0  0
    1.3439    3.0009    0.0000 C   0  0  0  0  0  0  0  0  0  0  0  0
    0.9616    2.8766    0.0000 C   0  0  0  0  0  0  0  0  0  0  0  0
   -0.0944    1.5414    0.0000 O   0  0  0  0  0  0  0  0  0  0  0  0
   -0.3678    1.2717    0.0000 C   0  0  0  0  0  0  0  0  0  0  0  0
   -1.2853   -0.3173    0.0000 C   0  0  0  0  0  0  0  0  0  0  0  0
   -1.3821   -0.6890    0.0000 O   0  0  0  0  0  0  0  0  0  0  0  0
   -2.0104   -2.2710    0.0000 C   0  0  0  0  0  0  0  0  0  0  0  0
   -1.9269   -2.6643    0.0000 C   0  0  0  0  0  0  0  0  0  0  0  0
  1  2  1  0
  2  3  1  0
  3  4  1  0
  4  5  1  0
  5  6  1  0
  6  7  1  0
  7  8  1  0
  8  9  1  0
  9 10  1  0
 10 11  1  0
 11 12  1  0
 12 13  1  0
 13 14  1  0
 14 15  1  0
 15 16  1  0
 16 17  1  0
 17 18  1  0
 16 19  1  0
 19 20  1  0
 20 21  1  0
 21 22  1  0
 22 23  1  0
 23 24  1  0
 24 25  1  0
 25 26  1  0
 18  1  1  0
 26  7  1  0
M  END
>  <Name>  (195) 
4,7,13,16,21,24-Hexaoxa-1,10-diazabicyclo[8.8.8]hexacosane_([2.2.2]cryptand)

>  <logK_La_z=3.0_T=25_I=0.5>  (195) 
6.45

$$$$

     RDKit          2D

 28 28  0  0  0  0  0  0  0  0999 V2000
    4.3978   -2.5981    0.0000 O   0  0  0  0  0  0  0  0  0  0  0  0
    5.1478   -1.2990    0.0000 C   0  0  0  0  0  0  0  0  0  0  0  0
    4.3978    0.0000    0.0000 C   0  0  0  0  0  0  0  0  0  0  0  0
    2.8978    0.0000    0.0000 N   0  0  0  0  0  0  0  0  0  0  0  0
    2.5095   -1.4489    0.0000 C   0  0  0  0  0  0  0  0  0  0  0  0
    1.4489   -2.5095    0.0000 C   0  0  0  0  0  0  0  0  0  0  0  0
   -0.0000   -2.8978    0.0000 N   0  0  0  0  0  0  0  0  0  0  0  0
   -0.0000   -4.3978    0.0000 C   0  0  0  0  0  0  0  0  0  0  0  0
   -1.2990   -5.1478    0.0000 C   0  0  0  0  0  0  0  0  0  0  0  0
   -1.2990   -6.6478    0.0000 N   0  0  0  0  0  0  0  0  0  0  0  0
   -2.5981   -4.3978    0.0000 O   0  0  0  0  0  0  0  0  0  0  0  0
   -1.4489   -2.5095    0.0000 C   0  0  0  0  0  0  0  0  0  0  0  0
   -2.5095   -1.4489    0.0000 C   0  0  0  0  0  0  0  0  0  0  0  0
   -2.8978    0.0000    0.0000 N   0  0  0  0  0  0  0  0  0  0  0  0
   -4.3978    0.0000    0.0000 C   0  0  0  0  0  0  0  0  0  0  0  0
   -5.1478    1.2990    0.0000 C   0  0  0  0  0  0  0  0  0  0  0  0
   -6.6478    1.2990    0.0000 N   0  0  0  0  0  0  0  0  0  0  0  0
   -4.3978    2.5981    0.0000 O   0  0  0  0  0  0  0  0  0  0  0  0
   -2.5095    1.4489    0.0000 C   0  0  0  0  0  0  0  0  0  0  0  0
   -1.4489    2.5095    0.0000 C   0  0  0  0  0  0  0  0  0  0  0  0
    0.0000    2.8978    0.0000 N   0  0  0  0  0  0  0  0  0  0  0  0
    0.0000    4.3978    0.0000 C   0  0  0  0  0  0  0  0  0  0  0  0
    1.2990    5.1478    0.0000 C   0  0  0  0  0  0  0  0  0  0  0  0
    1.2990    6.6478    0.0000 N   0  0  0  0  0  0  0  0  0  0  0  0
    2.5981    4.3978    0.0000 O   0  0  0  0  0  0  0  0  0  0  0  0
    1.4489    2.5095    0.0000 C   0  0  0  0  0  0  0  0  0  0  0  0
    2.5095    1.4489    0.0000 C   0  0  0  0  0  0  0  0  0  0  0  0
    6.6478   -1.2990    0.0000 N   0  0  0  0  0  0  0  0  0  0  0  0
  1  2  2  0
  2  3  1  0
  3  4  1  0
  4  5  1  0
  5  6  1  0
  6  7  1  0
  7  8  1  0
  8  9  1  0
  9 10  1  0
  9 11  2  0
  7 12  1  0
 12 13  1  0
 13 14  1  0
 14 15  1  0
 15 16  1  0
 16 17  1  0
 16 18  2  0
 14 19  1  0
 19 20  1  0
 20 21  1  0
 21 22  1  0
 22 23  1  0
 23 24  1  0
 23 25  2  0
 21 26  1  0
 26 27  1  0
  2 28  1  0
 27  4  1  0
M  END
>  <Name>  (196) 
1,4,7,10-Tetraazacyclododecane-1,4,7,10-tetraacetic_acid_tetraamide_(DOTAM)

>  <logK_La_z=3.0_T=25_I=0.1>  (196) 
10.35

$$$$

     RDKit          2D

 11 12  0  0  0  0  0  0  0  0999 V2000
    3.0000   -2.5981    0.0000 O   0  0  0  0  0  0  0  0  0  0  0  0
    1.5000   -2.5981    0.0000 C   0  0  0  0  0  0  0  0  0  0  0  0
    0.7500   -1.2990    0.0000 C   0  0  0  0  0  0  0  0  0  0  0  0
    1.5000    0.0000    0.0000 N   0  0  0  0  0  0  0  0  0  0  0  0
    0.7500    1.2990    0.0000 C   0  0  0  0  0  0  0  0  0  0  0  0
   -0.7500    1.2990    0.0000 C   0  0  0  0  0  0  0  0  0  0  0  0
   -1.5000    0.0000    0.0000 C   0  0  0  0  0  0  0  0  0  0  0  0
   -0.7500   -1.2990    0.0000 C   0  0  0  0  0  0  0  0  0  0  0  0
   -1.5000   -2.5981    0.0000 C   0  0  0  0  0  0  0  0  0  0  0  0
   -0.7500   -3.8971    0.0000 C   0  0  0  0  0  0  0  0  0  0  0  0
    0.7500   -3.8971    0.0000 C   0  0  0  0  0  0  0  0  0  0  0  0
  1  2  1  0
  2  3  2  0
  3  4  1  0
  4  5  2  0
  5  6  1  0
  6  7  2  0
  7  8  1  0
  8  9  2  0
  9 10  1  0
 10 11  2  0
 11  2  1  0
  8  3  1  0
M  END
>  <Name>  (197) 
8-Hydroxyquinoline_(8-Quinolinol)(Oxine)

>  <logK_La_z=3.0_T=25_I=0.1>  (197) 
5.9

$$$$

     RDKit          2D

 23 25  0  0  0  0  0  0  0  0999 V2000
   -1.2135   -2.7256    0.0000 N   0  0  0  0  0  0  0  0  0  0  0  0
   -2.6401   -3.1891    0.0000 C   0  0  0  0  0  0  0  0  0  0  0  0
   -3.1036   -4.6157    0.0000 C   0  0  0  0  0  0  0  0  0  0  0  0
   -2.2220   -5.8293    0.0000 O   0  0  0  0  0  0  0  0  0  0  0  0
   -4.6036   -4.6157    0.0000 C   0  0  0  0  0  0  0  0  0  0  0  0
   -5.4853   -5.8293    0.0000 O   0  0  0  0  0  0  0  0  0  0  0  0
   -5.0672   -3.1891    0.0000 C   0  0  0  0  0  0  0  0  0  0  0  0
   -6.4937   -2.7256    0.0000 C   0  0  0  0  0  0  0  0  0  0  0  0
   -6.8056   -1.2584    0.0000 O   0  0  0  0  0  0  0  0  0  0  0  0
   -8.2322   -0.7949    0.0000 P   0  0  0  0  0  0  0  0  0  0  0  0
   -8.6957   -2.2215    0.0000 O   0  0  0  0  0  0  0  0  0  0  0  0
   -7.7687    0.6317    0.0000 O   0  0  0  0  0  0  0  0  0  0  0  0
   -9.6588   -0.3314    0.0000 O   0  0  0  0  0  0  0  0  0  0  0  0
   -3.8536   -2.3075    0.0000 O   0  0  0  0  0  0  0  0  0  0  0  0
   -0.0000   -3.6073    0.0000 C   0  0  0  0  0  0  0  0  0  0  0  0
    1.2135   -2.7256    0.0000 N   0  0  0  0  0  0  0  0  0  0  0  0
    0.7500   -1.2990    0.0000 C   0  0  0  0  0  0  0  0  0  0  0  0
    1.5000    0.0000    0.0000 C   0  0  0  0  0  0  0  0  0  0  0  0
    0.7500    1.2990    0.0000 N   0  0  0  0  0  0  0  0  0  0  0  0
   -0.7500    1.2990    0.0000 C   0  0  0  0  0  0  0  0  0  0  0  0
   -1.5000    0.0000    0.0000 N   0  0  0  0  0  0  0  0  0  0  0  0
   -0.7500   -1.2990    0.0000 C   0  0  0  0  0  0  0  0  0  0  0  0
    3.0000    0.0000    0.0000 N   0  0  0  0  0  0  0  0  0  0  0  0
  2  1  1  1
  2  3  1  0
  3  4  1  6
  3  5  1  0
  5  6  1  6
  5  7  1  0
  7  8  1  1
  8  9  1  0
  9 10  1  0
 10 11  1  0
 10 12  2  0
 10 13  1  0
  7 14  1  0
  1 15  1  0
 15 16  2  0
 16 17  1  0
 17 18  2  0
 18 19  1  0
 19 20  2  0
 20 21  1  0
 21 22  2  0
 18 23  1  0
 22  1  1  0
 14  2  1  0
 22 17  1  0
M  END
>  <Name>  (198) 
Adenosine-5'-(dihydrogenphosphate)_(AMP-5)

>  <logK_La_z=3.0_T=25_I=0.1>  (198) 
3.845

$$$$

     RDKit          2D

 31 33  0  0  0  0  0  0  0  0999 V2000
   -1.2135   -2.7256    0.0000 N   0  0  0  0  0  0  0  0  0  0  0  0
   -2.6401   -3.1891    0.0000 C   0  0  0  0  0  0  0  0  0  0  0  0
   -3.1036   -4.6157    0.0000 C   0  0  0  0  0  0  0  0  0  0  0  0
   -2.2220   -5.8293    0.0000 O   0  0  0  0  0  0  0  0  0  0  0  0
   -4.6036   -4.6157    0.0000 C   0  0  0  0  0  0  0  0  0  0  0  0
   -5.4853   -5.8293    0.0000 O   0  0  0  0  0  0  0  0  0  0  0  0
   -5.0672   -3.1891    0.0000 C   0  0  0  0  0  0  0  0  0  0  0  0
   -6.4937   -2.7256    0.0000 C   0  0  0  0  0  0  0  0  0  0  0  0
   -6.8056   -1.2584    0.0000 O   0  0  0  0  0  0  0  0  0  0  0  0
   -8.2322   -0.7949    0.0000 P   0  0  0  0  0  0  0  0  0  0  0  0
   -7.7687    0.6317    0.0000 O   0  0  0  0  0  0  0  0  0  0  0  0
   -8.6957   -2.2215    0.0000 O   0  0  0  0  0  0  0  0  0  0  0  0
   -9.6588   -0.3314    0.0000 O   0  0  0  0  0  0  0  0  0  0  0  0
  -10.7735   -1.3350    0.0000 P   0  0  0  0  0  0  0  0  0  0  0  0
   -9.7698   -2.4498    0.0000 O   0  0  0  0  0  0  0  0  0  0  0  0
  -11.7772   -0.2203    0.0000 O   0  0  0  0  0  0  0  0  0  0  0  0
  -11.8882   -2.3387    0.0000 O   0  0  0  0  0  0  0  0  0  0  0  0
  -11.5764   -3.8060    0.0000 P   0  0  0  0  0  0  0  0  0  0  0  0
  -10.1091   -3.4941    0.0000 O   0  0  0  0  0  0  0  0  0  0  0  0
  -13.0436   -4.1178    0.0000 O   0  0  0  0  0  0  0  0  0  0  0  0
  -11.2645   -5.2732    0.0000 O   0  0  0  0  0  0  0  0  0  0  0  0
   -3.8536   -2.3075    0.0000 O   0  0  0  0  0  0  0  0  0  0  0  0
   -0.0000   -3.6073    0.0000 C   0  0  0  0  0  0  0  0  0  0  0  0
    1.2135   -2.7256    0.0000 N   0  0  0  0  0  0  0  0  0  0  0  0
    0.7500   -1.2990    0.0000 C   0  0  0  0  0  0  0  0  0  0  0  0
    1.5000    0.0000    0.0000 C   0  0  0  0  0  0  0  0  0  0  0  0
    0.7500    1.2990    0.0000 N   0  0  0  0  0  0  0  0  0  0  0  0
   -0.7500    1.2990    0.0000 C   0  0  0  0  0  0  0  0  0  0  0  0
   -1.5000    0.0000    0.0000 N   0  0  0  0  0  0  0  0  0  0  0  0
   -0.7500   -1.2990    0.0000 C   0  0  0  0  0  0  0  0  0  0  0  0
    3.0000    0.0000    0.0000 N   0  0  0  0  0  0  0  0  0  0  0  0
  2  1  1  1
  2  3  1  0
  3  4  1  6
  3  5  1  0
  5  6  1  6
  5  7  1  0
  7  8  1  1
  8  9  1  0
  9 10  1  0
 10 11  1  0
 10 12  2  0
 10 13  1  0
 13 14  1  0
 14 15  1  0
 14 16  2  0
 14 17  1  0
 17 18  1  0
 18 19  1  0
 18 20  2  0
 18 21  1  0
  7 22  1  0
  1 23  1  0
 23 24  2  0
 24 25  1  0
 25 26  2  0
 26 27  1  0
 27 28  2  0
 28 29  1  0
 29 30  2  0
 26 31  1  0
 30  1  1  0
 22  2  1  0
 30 25  1  0
M  END
>  <Name>  (199) 
Adenosine-5'-(tetrahydrogentriphosphate)_(ATP)

>  <logK_La_z=3.0_T=25_I=0.1>  (199) 
6.145

$$$$

     RDKit          2D

 27 29  0  0  0  0  0  0  0  0999 V2000
   -8.2322   -0.7949    0.0000 P   0  0  0  0  0  0  0  0  0  0  0  0
   -8.6957   -2.2215    0.0000 O   0  0  0  0  0  0  0  0  0  0  0  0
   -7.7687    0.6317    0.0000 O   0  0  0  0  0  0  0  0  0  0  0  0
   -9.6588   -0.3314    0.0000 O   0  0  0  0  0  0  0  0  0  0  0  0
  -10.7735   -1.3350    0.0000 P   0  0  0  0  0  0  0  0  0  0  0  0
  -11.7772   -0.2203    0.0000 O   0  0  0  0  0  0  0  0  0  0  0  0
   -9.7698   -2.4498    0.0000 O   0  0  0  0  0  0  0  0  0  0  0  0
  -11.8882   -2.3387    0.0000 O   0  0  0  0  0  0  0  0  0  0  0  0
   -6.8056   -1.2584    0.0000 O   0  0  0  0  0  0  0  0  0  0  0  0
   -6.4937   -2.7256    0.0000 C   0  0  0  0  0  0  0  0  0  0  0  0
   -5.0672   -3.1891    0.0000 C   0  0  0  0  0  0  0  0  0  0  0  0
   -4.6036   -4.6157    0.0000 C   0  0  0  0  0  0  0  0  0  0  0  0
   -3.1036   -4.6157    0.0000 C   0  0  0  0  0  0  0  0  0  0  0  0
   -2.6401   -3.1891    0.0000 C   0  0  0  0  0  0  0  0  0  0  0  0
   -1.2135   -2.7256    0.0000 N   0  0  0  0  0  0  0  0  0  0  0  0
   -0.0000   -3.6073    0.0000 C   0  0  0  0  0  0  0  0  0  0  0  0
    1.2135   -2.7256    0.0000 N   0  0  0  0  0  0  0  0  0  0  0  0
    0.7500   -1.2990    0.0000 C   0  0  0  0  0  0  0  0  0  0  0  0
    1.5000    0.0000    0.0000 C   0  0  0  0  0  0  0  0  0  0  0  0
    0.7500    1.2990    0.0000 N   0  0  0  0  0  0  0  0  0  0  0  0
   -0.7500    1.2990    0.0000 C   0  0  0  0  0  0  0  0  0  0  0  0
   -1.5000    0.0000    0.0000 N   0  0  0  0  0  0  0  0  0  0  0  0
   -0.7500   -1.2990    0.0000 C   0  0  0  0  0  0  0  0  0  0  0  0
    3.0000    0.0000    0.0000 O   0  0  0  0  0  0  0  0  0  0  0  0
   -3.8536   -2.3075    0.0000 O   0  0  0  0  0  0  0  0  0  0  0  0
   -2.2220   -5.8293    0.0000 O   0  0  0  0  0  0  0  0  0  0  0  0
   -5.4853   -5.8293    0.0000 O   0  0  0  0  0  0  0  0  0  0  0  0
  1  2  2  0
  1  3  1  0
  1  4  1  0
  4  5  1  0
  5  6  2  0
  5  7  1  0
  5  8  1  0
  1  9  1  0
  9 10  1  0
 11 10  1  1
 11 12  1  0
 12 13  1  0
 13 14  1  0
 14 15  1  1
 15 16  1  0
 16 17  2  0
 17 18  1  0
 18 19  1  0
 19 20  1  0
 20 21  2  0
 21 22  1  0
 22 23  1  0
 19 24  2  0
 14 25  1  0
 13 26  1  6
 12 27  1  6
 25 11  1  0
 23 15  1  0
 23 18  2  0
M  END
>  <Name>  (200) 
Iminobis(methylenephosphonic_acid)_(IDP)

>  <logK_La_z=3.0_T=25_I=0.1>  (200) 
9.24

$$$$

     RDKit          2D

 20 19  0  0  0  0  0  0  0  0999 V2000
    0.0000    0.0000    0.0000 C   0  0  0  0  0  0  0  0  0  0  0  0
    1.2990    0.7500    0.0000 C   0  0  0  0  0  0  0  0  0  0  0  0
    2.5981   -0.0000    0.0000 N   0  0  0  0  0  0  0  0  0  0  0  0
    3.8971    0.7500    0.0000 C   0  0  0  0  0  0  0  0  0  0  0  0
    5.1962   -0.0000    0.0000 P   0  0  0  0  0  0  0  0  0  0  0  0
    6.4952    0.7500    0.0000 O   0  0  0  0  0  0  0  0  0  0  0  0
    5.1962   -1.5000    0.0000 O   0  0  0  0  0  0  0  0  0  0  0  0
    2.5981   -1.5000    0.0000 C   0  0  0  0  0  0  0  0  0  0  0  0
    1.2990   -2.2500    0.0000 P   0  0  0  0  0  0  0  0  0  0  0  0
    1.2990   -3.7500    0.0000 O   0  0  0  0  0  0  0  0  0  0  0  0
    0.0000   -1.5000    0.0000 O   0  0  0  0  0  0  0  0  0  0  0  0
   -1.2990    0.7500    0.0000 N   0  0  0  0  0  0  0  0  0  0  0  0
   -2.5981    0.0000    0.0000 C   0  0  0  0  0  0  0  0  0  0  0  0
   -3.8971    0.7500    0.0000 P   0  0  0  0  0  0  0  0  0  0  0  0
   -5.1962    0.0000    0.0000 O   0  0  0  0  0  0  0  0  0  0  0  0
   -3.8971    2.2500    0.0000 O   0  0  0  0  0  0  0  0  0  0  0  0
   -1.2990    2.2500    0.0000 C   0  0  0  0  0  0  0  0  0  0  0  0
    0.0000    3.0000    0.0000 P   0  0  0  0  0  0  0  0  0  0  0  0
    0.0000    4.5000    0.0000 O   0  0  0  0  0  0  0  0  0  0  0  0
    1.2990    2.2500    0.0000 O   0  0  0  0  0  0  0  0  0  0  0  0
  1  2  1  0
  2  3  1  0
  3  4  1  0
  4  5  2  0
  5  6  1  0
  5  7  1  0
  3  8  1  0
  8  9  2  0
  9 10  1  0
  9 11  1  0
  1 12  1  0
 12 13  1  0
 13 14  2  0
 14 15  1  0
 14 16  1  0
 12 17  1  0
 17 18  2  0
 18 19  1  0
 18 20  1  0
M  END
>  <Name>  (201) 
Ethylenedinitrilotetrakis(methylenephosphonous_acid)

>  <logK_La_z=3.0_T=25_I=0.1>  (201) 
6.44

$$$$

     RDKit          2D

  3  2  0  0  0  0  0  0  0  0999 V2000
    0.0000    0.0000    0.0000 C   0  0  0  0  0  0  0  0  0  0  0  0
    1.2990    0.7500    0.0000 O   0  0  0  0  0  0  0  0  0  0  0  0
   -1.2990    0.7500    0.0000 O   0  0  0  0  0  0  0  0  0  0  0  0
  1  2  1  0
  1  3  2  0
M  END
>  <Name>  (202) 
Methanoic_acid_(Formic_acid)

>  <logK_La_z=3.0_T=25_I=0.1>  (202) 
1.1

$$$$

     RDKit          2D

  5  4  0  0  0  0  0  0  0  0999 V2000
    2.5981   -1.5000    0.0000 O   0  0  0  0  0  0  0  0  0  0  0  0
    2.5981   -0.0000    0.0000 C   0  0  0  0  0  0  0  0  0  0  0  0
    1.2990    0.7500    0.0000 C   0  0  0  0  0  0  0  0  0  0  0  0
    0.0000    0.0000    0.0000 C   0  0  0  0  0  0  0  0  0  0  0  0
    3.8971    0.7500    0.0000 O   0  0  0  0  0  0  0  0  0  0  0  0
  1  2  2  0
  2  3  1  0
  3  4  1  0
  2  5  1  0
M  END
>  <Name>  (203) 
Propanoic_acid_(Propionic_acid)

>  <logK_La_z=3.0_T=20_I=0.1>  (203) 
1.89

>  <logK_La_z=3.0_T=25_I=2.0>  (203) 
1.53

$$$$

     RDKit          2D

  6  5  0  0  0  0  0  0  0  0999 V2000
    0.0000    0.0000    0.0000 C   0  0  0  0  0  0  0  0  0  0  0  0
    1.2990    0.7500    0.0000 C   0  0  0  0  0  0  0  0  0  0  0  0
    1.2990    2.2500    0.0000 C   0  0  0  0  0  0  0  0  0  0  0  0
   -0.0000    3.0000    0.0000 O   0  0  0  0  0  0  0  0  0  0  0  0
    2.5981    3.0000    0.0000 O   0  0  0  0  0  0  0  0  0  0  0  0
    2.5981   -0.0000    0.0000 C   0  0  0  0  0  0  0  0  0  0  0  0
  1  2  1  0
  2  3  1  0
  3  4  2  0
  3  5  1  0
  2  6  1  0
M  END
>  <Name>  (204) 
2-Methylpropanoic_acid_(Isobutyric_acid)

>  <logK_La_z=3.0_T=25_I=0.5>  (204) 
1.64

>  <logK_La_z=3.0_T=25_I=2.0>  (204) 
1.57

$$$$

     RDKit          2D

  5  4  0  0  0  0  0  0  0  0999 V2000
    2.5981   -0.0000    0.0000 O   0  0  0  0  0  0  0  0  0  0  0  0
    1.2990    0.7500    0.0000 C   0  0  0  0  0  0  0  0  0  0  0  0
    0.0000    0.0000    0.0000 C   0  0  0  0  0  0  0  0  0  0  0  0
   -1.2990    0.7500    0.0000 Cl  0  0  0  0  0  0  0  0  0  0  0  0
    1.2990    2.2500    0.0000 O   0  0  0  0  0  0  0  0  0  0  0  0
  1  2  1  0
  2  3  1  0
  3  4  1  0
  2  5  2  0
M  END
>  <Name>  (205) 
Chloroacetic_acid

>  <logK_La_z=3.0_T=25_I=0.1>  (205) 
1.12

$$$$

     RDKit          2D

  5  4  0  0  0  0  0  0  0  0999 V2000
    1.2990    2.2500    0.0000 O   0  0  0  0  0  0  0  0  0  0  0  0
    1.2990    0.7500    0.0000 C   0  0  0  0  0  0  0  0  0  0  0  0
    0.0000    0.0000    0.0000 C   0  0  0  0  0  0  0  0  0  0  0  0
   -1.2990    0.7500    0.0000 I   0  0  0  0  0  0  0  0  0  0  0  0
    2.5981   -0.0000    0.0000 O   0  0  0  0  0  0  0  0  0  0  0  0
  1  2  2  0
  2  3  1  0
  3  4  1  0
  2  5  1  0
M  END
>  <Name>  (206) 
Iodoacetic_acid

>  <logK_La_z=3.0_T=25_I=0.1>  (206) 
1.18

$$$$

     RDKit          2D

  7  6  0  0  0  0  0  0  0  0999 V2000
    3.8971    0.7500    0.0000 C   0  0  0  0  0  0  0  0  0  0  0  0
    2.5981   -0.0000    0.0000 C   0  0  0  0  0  0  0  0  0  0  0  0
    2.5981   -1.5000    0.0000 O   0  0  0  0  0  0  0  0  0  0  0  0
    1.2990    0.7500    0.0000 C   0  0  0  0  0  0  0  0  0  0  0  0
    0.0000    0.0000    0.0000 C   0  0  0  0  0  0  0  0  0  0  0  0
    5.1962   -0.0000    0.0000 O   0  0  0  0  0  0  0  0  0  0  0  0
    3.8971    2.2500    0.0000 O   0  0  0  0  0  0  0  0  0  0  0  0
  1  2  1  0
  2  3  1  0
  2  4  1  0
  4  5  1  0
  1  6  1  0
  1  7  2  0
M  END
>  <Name>  (207) 
DL-2-Hydroxybutanoic_acid

>  <logK_La_z=3.0_T=25_I=0.1>  (207) 
2.31

$$$$

     RDKit          2D

  8  7  0  0  0  0  0  0  0  0999 V2000
    0.0000    0.0000    0.0000 C   0  0  0  0  0  0  0  0  0  0  0  0
    1.2990    0.7500    0.0000 C   0  0  0  0  0  0  0  0  0  0  0  0
    2.5981   -0.0000    0.0000 C   0  0  0  0  0  0  0  0  0  0  0  0
    3.8971    0.7500    0.0000 C   0  0  0  0  0  0  0  0  0  0  0  0
    5.1962   -0.0000    0.0000 C   0  0  0  0  0  0  0  0  0  0  0  0
    5.1962   -1.5000    0.0000 O   0  0  0  0  0  0  0  0  0  0  0  0
    6.4952    0.7500    0.0000 O   0  0  0  0  0  0  0  0  0  0  0  0
    3.8971    2.2500    0.0000 O   0  0  0  0  0  0  0  0  0  0  0  0
  1  2  1  0
  2  3  1  0
  3  4  1  0
  4  5  1  0
  5  6  2  0
  5  7  1  0
  4  8  1  0
M  END
>  <Name>  (208) 
DL-2-Hydroxypentanoic_acid

>  <logK_La_z=3.0_T=25_I=1.0>  (208) 
1.98

$$$$

     RDKit          2D

  8  7  0  0  0  0  0  0  0  0999 V2000
    2.5981    4.5000    0.0000 O   0  0  0  0  0  0  0  0  0  0  0  0
    2.5981    3.0000    0.0000 C   0  0  0  0  0  0  0  0  0  0  0  0
    3.8971    2.2500    0.0000 O   0  0  0  0  0  0  0  0  0  0  0  0
    1.2990    2.2500    0.0000 C   0  0  0  0  0  0  0  0  0  0  0  0
   -0.0000    3.0000    0.0000 O   0  0  0  0  0  0  0  0  0  0  0  0
    1.2990    0.7500    0.0000 C   0  0  0  0  0  0  0  0  0  0  0  0
    0.0000    0.0000    0.0000 C   0  0  0  0  0  0  0  0  0  0  0  0
    2.5981   -0.0000    0.0000 C   0  0  0  0  0  0  0  0  0  0  0  0
  1  2  1  0
  2  3  2  0
  2  4  1  0
  4  5  1  0
  4  6  1  0
  6  7  1  0
  6  8  1  0
M  END
>  <Name>  (209) 
DL-2-Hydroxy-3-methylbutanoic_acid

>  <logK_La_z=3.0_T=25_I=0.1>  (209) 
2.16

$$$$

     RDKit          2D

  9  8  0  0  0  0  0  0  0  0999 V2000
    1.8481   -1.2990    0.0000 O   0  0  0  0  0  0  0  0  0  0  0  0
    2.5981   -0.0000    0.0000 C   0  0  0  0  0  0  0  0  0  0  0  0
    3.3481    1.2990    0.0000 C   0  0  0  0  0  0  0  0  0  0  0  0
    2.5981    2.5981    0.0000 O   0  0  0  0  0  0  0  0  0  0  0  0
    4.8481    1.2990    0.0000 O   0  0  0  0  0  0  0  0  0  0  0  0
    1.2990    0.7500    0.0000 C   0  0  0  0  0  0  0  0  0  0  0  0
    0.0000    0.0000    0.0000 C   0  0  0  0  0  0  0  0  0  0  0  0
    3.8971   -0.7500    0.0000 C   0  0  0  0  0  0  0  0  0  0  0  0
    3.8971   -2.2500    0.0000 C   0  0  0  0  0  0  0  0  0  0  0  0
  1  2  1  0
  2  3  1  0
  3  4  2  0
  3  5  1  0
  2  6  1  0
  6  7  1  0
  2  8  1  0
  8  9  1  0
M  END
>  <Name>  (210) 
2-Hydroxy-2-ethylbutanoic_acid

>  <logK_La_z=3.0_T=25_I=0.1>  (210) 
2.01

>  <logK_La_z=3.0_T=25_I=1.0>  (210) 
1.85

$$$$

     RDKit          2D

 10 10  0  0  0  0  0  0  0  0999 V2000
    2.6491   -0.9642    0.0000 O   0  0  0  0  0  0  0  0  0  0  0  0
    1.5000    0.0000    0.0000 C   0  0  0  0  0  0  0  0  0  0  0  0
    2.6491    0.9642    0.0000 C   0  0  0  0  0  0  0  0  0  0  0  0
    2.3886    2.4414    0.0000 O   0  0  0  0  0  0  0  0  0  0  0  0
    4.0586    0.4512    0.0000 O   0  0  0  0  0  0  0  0  0  0  0  0
    0.7500   -1.2990    0.0000 C   0  0  0  0  0  0  0  0  0  0  0  0
   -0.7500   -1.2990    0.0000 C   0  0  0  0  0  0  0  0  0  0  0  0
   -1.5000    0.0000    0.0000 C   0  0  0  0  0  0  0  0  0  0  0  0
   -0.7500    1.2990    0.0000 C   0  0  0  0  0  0  0  0  0  0  0  0
    0.7500    1.2990    0.0000 C   0  0  0  0  0  0  0  0  0  0  0  0
  1  2  1  0
  2  3  1  0
  3  4  2  0
  3  5  1  0
  2  6  1  0
  6  7  1  0
  7  8  1  0
  8  9  1  0
  9 10  1  0
 10  2  1  0
M  END
>  <Name>  (211) 
1-Hydroxycyclohexanecarboxylic_acid

>  <logK_La_z=3.0_T=25_I=0.1>  (211) 
2.08

>  <logK_La_z=3.0_T=25_I=1.0>  (211) 
1.76

$$$$

     RDKit          2D

 13 13  0  0  0  0  0  0  0  0999 V2000
    1.5000    0.0000    0.0000 C   0  0  0  0  0  0  0  0  0  0  0  0
    0.7500   -1.2990    0.0000 C   0  0  0  0  0  0  0  0  0  0  0  0
    0.4895   -2.7762    0.0000 O   0  0  0  0  0  0  0  0  0  0  0  0
    2.1595   -1.8121    0.0000 C   0  0  0  0  0  0  0  0  0  0  0  0
    2.4200   -3.2893    0.0000 O   0  0  0  0  0  1  0  0  0  0  0  0
    3.3086   -0.8479    0.0000 O   0  0  0  0  0  0  0  0  0  0  0  0
   -0.7500   -1.2990    0.0000 C   0  0  0  0  0  0  0  0  0  0  0  0
   -1.5000    0.0000    0.0000 C   0  0  0  0  0  0  0  0  0  0  0  0
   -3.0000    0.0000    0.0000 O   0  0  0  0  0  0  0  0  0  0  0  0
   -0.7500    1.2990    0.0000 C   0  0  0  0  0  0  0  0  0  0  0  0
   -1.5000    2.5981    0.0000 O   0  0  0  0  0  0  0  0  0  0  0  0
    0.7500    1.2990    0.0000 C   0  0  0  0  0  0  0  0  0  0  0  0
    1.5000    2.5981    0.0000 O   0  0  0  0  0  0  0  0  0  0  0  0
  1  2  1  0
  2  3  1  0
  2  4  1  0
  4  5  1  0
  4  6  2  0
  2  7  1  0
  7  8  1  0
  8  9  1  1
  8 10  1  0
 10 11  1  0
 10 12  1  0
 12 13  1  6
 12  1  1  0
M  CHG  1   5  -1
M  END
>  <Name>  (212) 
(1R,3R,4R,5R)-(-)-1,3,4,5-Tetrahydroxcyclohexanecarboxylic_acid_(Quinic_acid)

>  <logK_La_z=3.0_T=25_I=0.1>  (212) 
2.35

>  <logK_La_z=3.0_T=25_I=1.0>  (212) 
2.08

$$$$

     RDKit          2D

  6  5  0  0  0  0  0  0  0  0999 V2000
   -1.2990    0.7500    0.0000 O   0  0  0  0  0  0  0  0  0  0  0  0
    0.0000    0.0000    0.0000 C   0  0  0  0  0  0  0  0  0  0  0  0
    1.2990    0.7500    0.0000 C   0  0  0  0  0  0  0  0  0  0  0  0
    2.5981   -0.0000    0.0000 C   0  0  0  0  0  0  0  0  0  0  0  0
    2.5981   -1.5000    0.0000 O   0  0  0  0  0  0  0  0  0  0  0  0
    3.8971    0.7500    0.0000 O   0  0  0  0  0  0  0  0  0  0  0  0
  1  2  1  0
  2  3  1  0
  3  4  1  0
  4  5  2  0
  4  6  1  0
M  END
>  <Name>  (213) 
3-Hydroxypropanoic_acid

>  <logK_La_z=3.0_T=25_I=0.1>  (213) 
1.91

>  <logK_La_z=3.0_T=25_I=2.0>  (213) 
1.56

$$$$

     RDKit          2D

  5  4  0  0  0  0  0  0  0  0999 V2000
    1.2990    2.2500    0.0000 O   0  0  0  0  0  0  0  0  0  0  0  0
    1.2990    0.7500    0.0000 C   0  0  0  0  0  0  0  0  0  0  0  0
    0.0000    0.0000    0.0000 C   0  0  0  0  0  0  0  0  0  0  0  0
   -1.2990    0.7500    0.0000 O   0  0  0  0  0  0  0  0  0  0  0  0
    2.5981   -0.0000    0.0000 O   0  0  0  0  0  0  0  0  0  0  0  0
  1  2  2  0
  2  3  1  0
  3  4  2  0
  2  5  1  0
M  END
>  <Name>  (214) 
Oxoacetic_acid_(Glyoxylic_acid)

>  <logK_La_z=3.0_T=20_I=0.1>  (214) 
2.36

$$$$

     RDKit          2D

  6  5  0  0  0  0  0  0  0  0999 V2000
    0.0000    0.0000    0.0000 C   0  0  0  0  0  0  0  0  0  0  0  0
    1.2990    0.7500    0.0000 C   0  0  0  0  0  0  0  0  0  0  0  0
    1.2990    2.2500    0.0000 O   0  0  0  0  0  0  0  0  0  0  0  0
    2.5981   -0.0000    0.0000 C   0  0  0  0  0  0  0  0  0  0  0  0
    2.5981   -1.5000    0.0000 O   0  0  0  0  0  0  0  0  0  0  0  0
    3.8971    0.7500    0.0000 O   0  0  0  0  0  0  0  0  0  0  0  0
  1  2  1  0
  2  3  2  0
  2  4  1  0
  4  5  2  0
  4  6  1  0
M  END
>  <Name>  (215) 
2-Oxopropanoic_acid_(Pyruvic_acid)

>  <logK_La_z=3.0_T=25_I=2.0>  (215) 
1.0

$$$$

     RDKit          2D

  8  7  0  0  0  0  0  0  0  0999 V2000
    0.0000    0.0000    0.0000 C   0  0  0  0  0  0  0  0  0  0  0  0
    1.2990    0.7500    0.0000 C   0  0  0  0  0  0  0  0  0  0  0  0
    2.5981   -0.0000    0.0000 N   0  0  0  0  0  0  0  0  0  0  0  0
    3.8971    0.7500    0.0000 C   0  0  0  0  0  0  0  0  0  0  0  0
    5.1962   -0.0000    0.0000 C   0  0  0  0  0  0  0  0  0  0  0  0
    5.1962   -1.5000    0.0000 O   0  0  0  0  0  0  0  0  0  0  0  0
    6.4952    0.7500    0.0000 O   0  0  0  0  0  0  0  0  0  0  0  0
    1.2990    2.2500    0.0000 O   0  0  0  0  0  0  0  0  0  0  0  0
  1  2  1  0
  2  3  1  0
  3  4  1  0
  4  5  1  0
  5  6  2  0
  5  7  1  0
  2  8  2  0
M  END
>  <Name>  (216) 
N-Acetylglycine

>  <logK_La_z=3.0_T=25_I=0.1>  (216) 
1.61

$$$$

     RDKit          2D

  6  5  0  0  0  0  0  0  0  0999 V2000
    3.8971    0.7500    0.0000 C   0  0  0  0  0  0  0  0  0  0  0  0
    2.5981   -0.0000    0.0000 C   0  0  0  0  0  0  0  0  0  0  0  0
    1.2990    0.7500    0.0000 O   0  0  0  0  0  0  0  0  0  0  0  0
    0.0000    0.0000    0.0000 C   0  0  0  0  0  0  0  0  0  0  0  0
    5.1962   -0.0000    0.0000 O   0  0  0  0  0  0  0  0  0  0  0  0
    3.8971    2.2500    0.0000 O   0  0  0  0  0  0  0  0  0  0  0  0
  1  2  1  0
  2  3  1  0
  3  4  1  0
  1  5  1  0
  1  6  2  0
M  END
>  <Name>  (217) 
Methoxyacetic_acid

>  <logK_La_z=3.0_T=20_I=0.1>  (217) 
2.03

$$$$

     RDKit          2D

  7  6  0  0  0  0  0  0  0  0999 V2000
    5.1962   -1.5000    0.0000 O   0  0  0  0  0  0  0  0  0  0  0  0
    5.1962   -0.0000    0.0000 C   0  0  0  0  0  0  0  0  0  0  0  0
    3.8971    0.7500    0.0000 C   0  0  0  0  0  0  0  0  0  0  0  0
    2.5981   -0.0000    0.0000 S   0  0  0  0  0  0  0  0  0  0  0  0
    1.2990    0.7500    0.0000 C   0  0  0  0  0  0  0  0  0  0  0  0
    0.0000    0.0000    0.0000 C   0  0  0  0  0  0  0  0  0  0  0  0
    6.4952    0.7500    0.0000 O   0  0  0  0  0  0  0  0  0  0  0  0
  1  2  2  0
  2  3  1  0
  3  4  1  0
  4  5  1  0
  5  6  1  0
  2  7  1  0
M  END
>  <Name>  (218) 
(Ethylthio)acetic_acid

>  <logK_La_z=3.0_T=30_I=2.0>  (218) 
1.7

$$$$

     RDKit          2D

  8  7  0  0  0  0  0  0  0  0999 V2000
    3.8971    0.7500    0.0000 O   0  0  0  0  0  0  0  0  0  0  0  0
    2.5981   -0.0000    0.0000 C   0  0  0  0  0  0  0  0  0  0  0  0
    1.2990    0.7500    0.0000 C   0  0  0  0  0  0  0  0  0  0  0  0
    1.2990    2.2500    0.0000 C   0  0  0  0  0  0  0  0  0  0  0  0
   -0.0000    3.0000    0.0000 O   0  0  0  0  0  0  0  0  0  0  0  0
    2.5981    3.0000    0.0000 O   0  0  0  0  0  0  0  0  0  0  0  0
    0.0000    0.0000    0.0000 C   0  0  0  0  0  0  0  0  0  0  0  0
    2.5981   -1.5000    0.0000 O   0  0  0  0  0  0  0  0  0  0  0  0
  1  2  1  0
  2  3  1  0
  3  4  1  0
  4  5  2  0
  4  6  1  0
  3  7  1  0
  2  8  2  0
M  END
>  <Name>  (219) 
Ethane-1,1-dicarboxylic_acid_(Methylmalonic_acid)

>  <logK_La_z=3.0_T=25_I=0.1>  (219) 
3.48

$$$$

     RDKit          2D

  9  8  0  0  0  0  0  0  0  0999 V2000
    1.2990    0.7500    0.0000 C   0  0  0  0  0  0  0  0  0  0  0  0
    0.0000    0.0000    0.0000 C   0  0  0  0  0  0  0  0  0  0  0  0
    2.5981    1.5000    0.0000 C   0  0  0  0  0  0  0  0  0  0  0  0
    2.0490   -0.5490    0.0000 C   0  0  0  0  0  0  0  0  0  0  0  0
    1.2990   -1.8481    0.0000 O   0  0  0  0  0  0  0  0  0  0  0  0
    3.5490   -0.5490    0.0000 O   0  0  0  0  0  0  0  0  0  0  0  0
    0.5490    2.0490    0.0000 C   0  0  0  0  0  0  0  0  0  0  0  0
   -0.9510    2.0490    0.0000 O   0  0  0  0  0  0  0  0  0  0  0  0
    1.2990    3.3481    0.0000 O   0  0  0  0  0  0  0  0  0  0  0  0
  1  2  1  0
  1  3  1  0
  1  4  1  0
  4  5  2  0
  4  6  1  0
  1  7  1  0
  7  8  2  0
  7  9  1  0
M  END
>  <Name>  (220) 
Propane-2,2-dicarboxylic_acid_(Dimethylmalonic_acid)

>  <logK_La_z=3.0_T=25_I=0.1>  (220) 
3.49

$$$$

     RDKit          2D

 11 10  0  0  0  0  0  0  0  0999 V2000
    2.5981    2.5981    0.0000 O   0  0  0  0  0  0  0  0  0  0  0  0
    3.3481    1.2990    0.0000 C   0  0  0  0  0  0  0  0  0  0  0  0
    2.5981   -0.0000    0.0000 C   0  0  0  0  0  0  0  0  0  0  0  0
    1.2990    0.7500    0.0000 C   0  0  0  0  0  0  0  0  0  0  0  0
    0.0000    0.0000    0.0000 C   0  0  0  0  0  0  0  0  0  0  0  0
    3.8971   -0.7500    0.0000 C   0  0  0  0  0  0  0  0  0  0  0  0
    3.8971   -2.2500    0.0000 C   0  0  0  0  0  0  0  0  0  0  0  0
    1.8481   -1.2990    0.0000 C   0  0  0  0  0  0  0  0  0  0  0  0
    2.5981   -2.5981    0.0000 O   0  0  0  0  0  0  0  0  0  0  0  0
    0.3481   -1.2990    0.0000 O   0  0  0  0  0  0  0  0  0  0  0  0
    4.8481    1.2990    0.0000 O   0  0  0  0  0  0  0  0  0  0  0  0
  1  2  2  0
  2  3  1  0
  3  4  1  0
  4  5  1  0
  3  6  1  0
  6  7  1  0
  3  8  1  0
  8  9  1  0
  8 10  2  0
  2 11  1  0
M  END
>  <Name>  (221) 
Pentane-3,3-dicarboxylic_acid_(Diethylmalonic_acid)

>  <logK_La_z=3.0_T=25_I=0.1>  (221) 
3.61

$$$$

     RDKit          2D

 13 12  0  0  0  0  0  0  0  0999 V2000
    6.1471   -0.5490    0.0000 O   0  0  0  0  0  0  0  0  0  0  0  0
    4.6471   -0.5490    0.0000 C   0  0  0  0  0  0  0  0  0  0  0  0
    3.8971    0.7500    0.0000 C   0  0  0  0  0  0  0  0  0  0  0  0
    3.1471    2.0490    0.0000 C   0  0  0  0  0  0  0  0  0  0  0  0
    1.6471    2.0490    0.0000 O   0  0  0  0  0  0  0  0  0  0  0  0
    3.8971    3.3481    0.0000 O   0  0  0  0  0  0  0  0  0  0  0  0
    2.5981   -0.0000    0.0000 C   0  0  0  0  0  0  0  0  0  0  0  0
    1.2990    0.7500    0.0000 C   0  0  0  0  0  0  0  0  0  0  0  0
    0.0000    0.0000    0.0000 C   0  0  0  0  0  0  0  0  0  0  0  0
    5.1962    1.5000    0.0000 C   0  0  0  0  0  0  0  0  0  0  0  0
    5.1962    3.0000    0.0000 C   0  0  0  0  0  0  0  0  0  0  0  0
    6.4952    3.7500    0.0000 C   0  0  0  0  0  0  0  0  0  0  0  0
    3.8971   -1.8481    0.0000 O   0  0  0  0  0  0  0  0  0  0  0  0
  1  2  1  0
  2  3  1  0
  3  4  1  0
  4  5  2  0
  4  6  1  0
  3  7  1  0
  7  8  1  0
  8  9  1  0
  3 10  1  0
 10 11  1  0
 11 12  1  0
  2 13  2  0
M  END
>  <Name>  (222) 
Heptane-4,4-dicarboxylic_acid_(Dipropylmalonic_acid)

>  <logK_La_z=3.0_T=25_I=0.1>  (222) 
3.66

$$$$

     RDKit          2D

 10 10  0  0  0  0  0  0  0  0999 V2000
    1.7331    2.5095    0.0000 O   0  0  0  0  0  0  0  0  0  0  0  0
    2.1213    1.0607    0.0000 C   0  0  0  0  0  0  0  0  0  0  0  0
    1.0607    0.0000    0.0000 C   0  0  0  0  0  0  0  0  0  0  0  0
   -0.0000   -1.0607    0.0000 C   0  0  0  0  0  0  0  0  0  0  0  0
   -1.0607    0.0000    0.0000 C   0  0  0  0  0  0  0  0  0  0  0  0
    0.0000    1.0607    0.0000 C   0  0  0  0  0  0  0  0  0  0  0  0
    2.1213   -1.0607    0.0000 C   0  0  0  0  0  0  0  0  0  0  0  0
    1.7331   -2.5095    0.0000 O   0  0  0  0  0  0  0  0  0  0  0  0
    3.5702   -0.6724    0.0000 O   0  0  0  0  0  0  0  0  0  0  0  0
    3.5702    0.6724    0.0000 O   0  0  0  0  0  0  0  0  0  0  0  0
  1  2  2  0
  2  3  1  0
  3  4  1  0
  4  5  1  0
  5  6  1  0
  3  7  1  0
  7  8  1  0
  7  9  2  0
  2 10  1  0
  6  3  1  0
M  END
>  <Name>  (223) 
Cyclobutane-1,1-dicarboxylic_acid

>  <logK_La_z=3.0_T=25_I=0.1>  (223) 
3.42

$$$$

     RDKit          2D

 10  9  0  0  0  0  0  0  0  0999 V2000
    4.2990   -1.8481    0.0000 O   0  0  0  0  0  0  0  0  0  0  0  0
    3.5490   -0.5490    0.0000 C   0  0  0  0  0  0  0  0  0  0  0  0
    4.2990    0.7500    0.0000 O   0  0  0  0  0  0  0  0  0  0  0  0
    2.0490   -0.5490    0.0000 C   0  0  0  0  0  0  0  0  0  0  0  0
    1.2990    0.7500    0.0000 C   0  0  0  0  0  0  0  0  0  0  0  0
    0.0000    0.0000    0.0000 C   0  0  0  0  0  0  0  0  0  0  0  0
    0.5490    2.0490    0.0000 C   0  0  0  0  0  0  0  0  0  0  0  0
   -0.9510    2.0490    0.0000 O   0  0  0  0  0  0  0  0  0  0  0  0
    1.2990    3.3481    0.0000 O   0  0  0  0  0  0  0  0  0  0  0  0
    2.5981    1.5000    0.0000 C   0  0  0  0  0  0  0  0  0  0  0  0
  1  2  1  0
  2  3  2  0
  2  4  1  0
  4  5  1  0
  5  6  1  0
  5  7  1  0
  7  8  2  0
  7  9  1  0
  5 10  1  0
M  END
>  <Name>  (224) 
2-Methylpropane-1,2-dicarboxylic_acid_(2,2-Dimethylsuccinic_acid)

>  <logK_La_z=3.0_T=25_I=0.5>  (224) 
3.13

$$$$

     RDKit          2D

  8  7  0  0  0  0  0  0  0  0999 V2000
   -2.2500   -1.2990    0.0000 O   0  0  0  0  0  0  0  0  0  0  0  0
   -0.7500   -1.2990    0.0000 C   0  0  0  0  0  0  0  0  0  0  0  0
    0.0000   -2.5981    0.0000 O   0  0  0  0  0  0  0  0  0  0  0  0
    0.0000    0.0000    0.0000 C   0  0  0  0  0  0  0  0  0  0  0  0
    1.5000    0.0000    0.0000 C   0  0  0  0  0  0  0  0  0  0  0  0
    2.2500    1.2990    0.0000 C   0  0  0  0  0  0  0  0  0  0  0  0
    1.5000    2.5981    0.0000 O   0  0  0  0  0  0  0  0  0  0  0  0
    3.7500    1.2990    0.0000 O   0  0  0  0  0  0  0  0  0  0  0  0
  1  2  1  0
  2  3  2  0
  2  4  1  0
  4  5  2  0
  5  6  1  0
  6  7  2  0
  6  8  1  0
M  END
>  <Name>  (225) 
trans-Butenedioic_acid_(Fumaric_acid)

>  <logK_La_z=3.0_T=25_I=0.1>  (225) 
2.47

>  <logK_La_z=3.0_T=25_I=0.0>  (225) 
3.01

$$$$

     RDKit          2D

  0  0  0  0  0  0  0  0  0  0999 V3000
M  V30 BEGIN CTAB
M  V30 COUNTS 12 12 0 0 0
M  V30 BEGIN ATOM
M  V30 1 O 3.750000 -1.299038 0.000000 0
M  V30 2 C 3.000000 0.000000 0.000000 0
M  V30 3 C 1.500000 0.000000 0.000000 0
M  V30 4 C 0.750000 -1.299038 0.000000 0
M  V30 5 C -0.750000 -1.299038 0.000000 0
M  V30 6 C -1.500000 0.000000 0.000000 0
M  V30 7 C -3.000000 0.000000 0.000000 0
M  V30 8 O -3.750000 1.299038 0.000000 0
M  V30 9 O -3.750000 -1.299038 0.000000 0
M  V30 10 C -0.750000 1.299038 0.000000 0
M  V30 11 C 0.750000 1.299038 0.000000 0
M  V30 12 O 3.750000 1.299038 0.000000 0
M  V30 END ATOM
M  V30 BEGIN BOND
M  V30 1 1 1 2
M  V30 2 1 3 2 CFG=1
M  V30 3 1 3 4
M  V30 4 1 4 5
M  V30 5 1 5 6
M  V30 6 1 6 7 CFG=3
M  V30 7 1 7 8
M  V30 8 2 7 9
M  V30 9 1 6 10
M  V30 10 1 10 11
M  V30 11 2 2 12
M  V30 12 1 11 3
M  V30 END BOND
M  V30 BEGIN COLLECTION
M  V30 MDLV30/STERAC1 ATOMS=(2 3 6)
M  V30 END COLLECTION
M  V30 END CTAB
M  END
>  <_CXSMILES_Data>  (226) 
|&1:2,5,r|

>  <Name>  (226) 
trans-Cyclohexane-1,4-dicarboxylic_acid

>  <logK_La_z=3.0_T=25_I=0.1>  (226) 
4.34

$$$$

     RDKit          2D

 12 12  0  0  0  0  0  0  0  0999 V2000
    3.7500   -1.2990    0.0000 O   0  0  0  0  0  0  0  0  0  0  0  0
    3.0000    0.0000    0.0000 C   0  0  0  0  0  0  0  0  0  0  0  0
    3.7500    1.2990    0.0000 O   0  0  0  0  0  0  0  0  0  0  0  0
    1.5000    0.0000    0.0000 C   0  0  0  0  0  0  0  0  0  0  0  0
    0.7500   -1.2990    0.0000 C   0  0  0  0  0  0  0  0  0  0  0  0
    1.5000   -2.5981    0.0000 C   0  0  0  0  0  0  0  0  0  0  0  0
    3.0000   -2.5981    0.0000 O   0  0  0  0  0  0  0  0  0  0  0  0
    0.7500   -3.8971    0.0000 O   0  0  0  0  0  0  0  0  0  0  0  0
   -0.7500   -1.2990    0.0000 C   0  0  0  0  0  0  0  0  0  0  0  0
   -1.5000    0.0000    0.0000 C   0  0  0  0  0  0  0  0  0  0  0  0
   -0.7500    1.2990    0.0000 C   0  0  0  0  0  0  0  0  0  0  0  0
    0.7500    1.2990    0.0000 C   0  0  0  0  0  0  0  0  0  0  0  0
  1  2  1  0
  2  3  2  0
  2  4  1  0
  4  5  2  0
  5  6  1  0
  6  7  2  0
  6  8  1  0
  5  9  1  0
  9 10  2  0
 10 11  1  0
 11 12  2  0
 12  4  1  0
M  END
>  <Name>  (227) 
Benzene-1,2-dicarboxylic_acid_(Phthalic_acid)

>  <logK_La_z=3.0_T=25_I=0.1>  (227) 
3.44

>  <logK_La_z=3.0_T=25_I=0.0>  (227) 
4.74

$$$$

     RDKit          2D

  9  8  0  0  0  0  0  0  0  0999 V2000
    1.2990    0.7500    0.0000 C   0  0  0  0  0  0  0  0  0  0  0  0
    1.2990    2.2500    0.0000 O   0  0  0  0  0  0  0  0  0  0  0  0
    0.0000    0.0000    0.0000 C   0  0  0  0  0  0  0  0  0  0  0  0
   -1.2990    0.7500    0.0000 C   0  0  0  0  0  0  0  0  0  0  0  0
   -2.5981    0.0000    0.0000 O   0  0  0  0  0  0  0  0  0  0  0  0
   -1.2990    2.2500    0.0000 O   0  0  0  0  0  0  0  0  0  0  0  0
    2.5981   -0.0000    0.0000 C   0  0  0  0  0  0  0  0  0  0  0  0
    3.8971    0.7500    0.0000 O   0  0  0  0  0  0  0  0  0  0  0  0
    2.5981   -1.5000    0.0000 O   0  0  0  0  0  0  0  0  0  0  0  0
  1  2  1  6
  1  3  1  0
  3  4  1  0
  4  5  1  0
  4  6  2  0
  1  7  1  0
  7  8  1  0
  7  9  2  0
M  END
>  <Name>  (228) 
L-Hydroxybutanedioic_acid_(Hydroxysuccinic_acid)(Malic_acid)

>  <logK_La_z=3.0_T=25_I=0.1>  (228) 
4.37

>  <logK_La_z=3.0_T=25_I=0.5>  (228) 
3.86

>  <logK_La_z=3.0_T=25_I=1.0>  (228) 
3.68

$$$$

     RDKit          2D

 10  9  0  0  0  0  0  0  0  0999 V2000
   -0.0000   -1.5000    0.0000 O   0  0  0  0  0  0  0  0  0  0  0  0
    0.0000    0.0000    0.0000 C   0  0  0  0  0  0  0  0  0  0  0  0
    1.2990    0.7500    0.0000 C   0  0  0  0  0  0  0  0  0  0  0  0
    1.2990    2.2500    0.0000 O   0  0  0  0  0  0  0  0  0  0  0  0
    2.5981   -0.0000    0.0000 C   0  0  0  0  0  0  0  0  0  0  0  0
    3.8971    0.7500    0.0000 O   0  0  0  0  0  0  0  0  0  0  0  0
    2.5981   -1.5000    0.0000 O   0  0  0  0  0  0  0  0  0  0  0  0
   -1.2990    0.7500    0.0000 C   0  0  0  0  0  0  0  0  0  0  0  0
   -2.5981    0.0000    0.0000 O   0  0  0  0  0  0  0  0  0  0  0  0
   -1.2990    2.2500    0.0000 O   0  0  0  0  0  0  0  0  0  0  0  0
  1  2  1  0
  2  3  1  0
  3  4  1  0
  3  5  1  0
  5  6  1  0
  5  7  2  0
  2  8  1  0
  8  9  1  0
  8 10  2  0
M  END
>  <Name>  (229) 
meso-2,3-Dihydroxybutanedioic_acid_(meso-Tartaric_acid)

>  <logK_La_z=3.0_T=25_I=0.1>  (229) 
4.39

$$$$

     RDKit          2D

  9  8  0  0  0  0  0  0  0  0999 V2000
    3.8971    0.7500    0.0000 O   0  0  0  0  0  0  0  0  0  0  0  0
    2.5981   -0.0000    0.0000 C   0  0  0  0  0  0  0  0  0  0  0  0
    2.5981   -1.5000    0.0000 O   0  0  0  0  0  0  0  0  0  0  0  0
    1.2990    0.7500    0.0000 C   0  0  0  0  0  0  0  0  0  0  0  0
    1.2990    2.2500    0.0000 O   0  0  0  0  0  0  0  0  0  0  0  0
    0.0000    0.0000    0.0000 C   0  0  0  0  0  0  0  0  0  0  0  0
   -1.2990    0.7500    0.0000 C   0  0  0  0  0  0  0  0  0  0  0  0
   -1.2990    2.2500    0.0000 O   0  0  0  0  0  0  0  0  0  0  0  0
   -2.5981    0.0000    0.0000 O   0  0  0  0  0  0  0  0  0  0  0  0
  1  2  1  0
  2  3  2  0
  2  4  1  0
  4  5  2  0
  4  6  1  0
  6  7  1  0
  7  8  2  0
  7  9  1  0
M  END
>  <Name>  (230) 
Oxobutanedioic_acid_(Oxaloacetic_acid)

>  <logK_La_z=3.0_T=25_I=0.5>  (230) 
3.11

>  <logK_La_z=3.0_T=25_I=0.0>  (230) 
5.26

$$$$

     RDKit          2D

  9  8  0  0  0  0  0  0  0  0999 V2000
    1.2990    0.7500    0.0000 C   0  0  0  0  0  0  0  0  0  0  0  0
    0.0000    0.0000    0.0000 C   0  0  0  0  0  0  0  0  0  0  0  0
   -1.2990    0.7500    0.0000 O   0  0  0  0  0  0  0  0  0  0  0  0
   -2.5981    0.0000    0.0000 C   0  0  0  0  0  0  0  0  0  0  0  0
   -3.8971    0.7500    0.0000 C   0  0  0  0  0  0  0  0  0  0  0  0
   -5.1962    0.0000    0.0000 O   0  0  0  0  0  0  0  0  0  0  0  0
   -3.8971    2.2500    0.0000 O   0  0  0  0  0  0  0  0  0  0  0  0
    2.5981   -0.0000    0.0000 O   0  0  0  0  0  0  0  0  0  0  0  0
    1.2990    2.2500    0.0000 O   0  0  0  0  0  0  0  0  0  0  0  0
  1  2  1  0
  2  3  1  0
  3  4  1  0
  4  5  1  0
  5  6  1  0
  5  7  2  0
  1  8  1  0
  1  9  2  0
M  END
>  <Name>  (231) 
Oxydiacetic_acid_(Diglycolic_acid)

>  <logK_La_z=3.0_T=25_I=0.1>  (231) 
5.79

>  <logK_La_z=3.0_T=25_I=1.0>  (231) 
4.93

$$$$

     RDKit          2D

 11 10  0  0  0  0  0  0  0  0999 V2000
    1.2990    2.2500    0.0000 O   0  0  0  0  0  0  0  0  0  0  0  0
    1.2990    0.7500    0.0000 C   0  0  0  0  0  0  0  0  0  0  0  0
    2.5981   -0.0000    0.0000 C   0  0  0  0  0  0  0  0  0  0  0  0
    2.5981   -1.5000    0.0000 O   0  0  0  0  0  0  0  0  0  0  0  0
    3.8971    0.7500    0.0000 O   0  0  0  0  0  0  0  0  0  0  0  0
    0.0000    0.0000    0.0000 C   0  0  0  0  0  0  0  0  0  0  0  0
    2.5981    3.0000    0.0000 C   0  0  0  0  0  0  0  0  0  0  0  0
    2.5981    4.5000    0.0000 C   0  0  0  0  0  0  0  0  0  0  0  0
    1.2990    5.2500    0.0000 O   0  0  0  0  0  0  0  0  0  0  0  0
    3.8971    5.2500    0.0000 O   0  0  0  0  0  0  0  0  0  0  0  0
    3.8971    2.2500    0.0000 C   0  0  0  0  0  0  0  0  0  0  0  0
  1  2  1  0
  2  3  1  0
  3  4  2  0
  3  5  1  0
  2  6  1  0
  1  7  1  0
  7  8  1  0
  8  9  2  0
  8 10  1  0
  7 11  1  0
M  END
>  <Name>  (232) 
DL-2,2'-Oxydipropanoic_acid_(Dilactic_acid)

>  <logK_La_z=3.0_T=25_I=0.1>  (232) 
4.84

$$$$

     RDKit          2D

 12 11  0  0  0  0  0  0  0  0999 V2000
   -1.2990    0.7500    0.0000 O   0  0  0  0  0  0  0  0  0  0  0  0
    0.0000    0.0000    0.0000 C   0  0  0  0  0  0  0  0  0  0  0  0
    1.2990    0.7500    0.0000 C   0  0  0  0  0  0  0  0  0  0  0  0
    1.2990    2.2500    0.0000 O   0  0  0  0  0  0  0  0  0  0  0  0
    2.5981   -0.0000    0.0000 O   0  0  0  0  0  0  0  0  0  0  0  0
   -2.5981    0.0000    0.0000 C   0  0  0  0  0  0  0  0  0  0  0  0
   -3.8971    0.7500    0.0000 C   0  0  0  0  0  0  0  0  0  0  0  0
   -5.1962    0.0000    0.0000 O   0  0  0  0  0  0  0  0  0  0  0  0
   -6.4952    0.7500    0.0000 C   0  0  0  0  0  0  0  0  0  0  0  0
   -7.7942    0.0000    0.0000 C   0  0  0  0  0  0  0  0  0  0  0  0
   -7.7942   -1.5000    0.0000 O   0  0  0  0  0  0  0  0  0  0  0  0
   -9.0933    0.7500    0.0000 O   0  0  0  0  0  0  0  0  0  0  0  0
  1  2  1  0
  2  3  1  0
  3  4  2  0
  3  5  1  0
  1  6  1  0
  6  7  1  0
  7  8  1  0
  8  9  1  0
  9 10  1  0
 10 11  2  0
 10 12  1  0
M  END
>  <Name>  (233) 
Ethylenebis(oxyacetic_acid)

>  <logK_La_z=3.0_T=25_I=1.0>  (233) 
4.35

$$$$

     RDKit          2D

 12 11  0  0  0  0  0  0  0  0999 V2000
   -0.0000    3.0000    0.0000 O   0  0  0  0  0  0  0  0  0  0  0  0
    1.2990    2.2500    0.0000 C   0  0  0  0  0  0  0  0  0  0  0  0
    1.2990    0.7500    0.0000 C   0  0  0  0  0  0  0  0  0  0  0  0
    0.0000    0.0000    0.0000 C   0  0  0  0  0  0  0  0  0  0  0  0
   -1.2990    0.7500    0.0000 C   0  0  0  0  0  0  0  0  0  0  0  0
   -2.5981    0.0000    0.0000 O   0  0  0  0  0  0  0  0  0  0  0  0
   -1.2990    2.2500    0.0000 O   0  0  0  0  0  0  0  0  0  0  0  0
    2.5981   -0.0000    0.0000 C   0  0  0  0  0  0  0  0  0  0  0  0
    3.8971    0.7500    0.0000 C   0  0  0  0  0  0  0  0  0  0  0  0
    5.1962   -0.0000    0.0000 O   0  0  0  0  0  0  0  0  0  0  0  0
    3.8971    2.2500    0.0000 O   0  0  0  0  0  0  0  0  0  0  0  0
    2.5981    3.0000    0.0000 O   0  0  0  0  0  0  0  0  0  0  0  0
  1  2  2  0
  2  3  1  0
  3  4  1  0
  4  5  1  0
  5  6  1  0
  5  7  2  0
  3  8  1  0
  8  9  1  0
  9 10  1  0
  9 11  2  0
  2 12  1  0
M  END
>  <Name>  (234) 
Propane-1,2,3-tricarboxylic_acid_(Tricarballylic_acid)

>  <logK_La_z=3.0_T=25_I=0.1>  (234) 
3.71

$$$$

     RDKit          2D

 10 10  0  0  0  0  0  0  0  0999 V2000
    3.0000    0.0000    0.0000 O   0  0  0  0  0  0  0  0  0  0  0  0
    1.5000    0.0000    0.0000 C   0  0  0  0  0  0  0  0  0  0  0  0
    0.7500   -1.2990    0.0000 C   0  0  0  0  0  0  0  0  0  0  0  0
   -0.7500   -1.2990    0.0000 C   0  0  0  0  0  0  0  0  0  0  0  0
   -1.5000    0.0000    0.0000 C   0  0  0  0  0  0  0  0  0  0  0  0
   -3.0000    0.0000    0.0000 N   0  0  0  0  0  4  0  0  0  0  0  0
   -3.7500    1.2990    0.0000 O   0  0  0  0  0  1  0  0  0  0  0  0
   -3.7500   -1.2990    0.0000 O   0  0  0  0  0  0  0  0  0  0  0  0
   -0.7500    1.2990    0.0000 C   0  0  0  0  0  0  0  0  0  0  0  0
    0.7500    1.2990    0.0000 C   0  0  0  0  0  0  0  0  0  0  0  0
  1  2  1  0
  2  3  2  0
  3  4  1  0
  4  5  2  0
  5  6  1  0
  6  7  1  0
  6  8  2  0
  5  9  1  0
  9 10  2  0
 10  2  1  0
M  CHG  2   6   1   7  -1
M  END
>  <Name>  (235) 
4-Nitrophenol

>  <logK_La_z=3.0_T=25_I=0.1>  (235) 
1.0

$$$$

     RDKit          2D

 13 13  0  0  0  0  0  0  0  0999 V2000
    3.0000    0.0000    0.0000 O   0  0  0  0  0  0  0  0  0  0  0  0
    1.5000    0.0000    0.0000 C   0  0  0  0  0  0  0  0  0  0  0  0
    0.7500   -1.2990    0.0000 C   0  0  0  0  0  0  0  0  0  0  0  0
   -0.7500   -1.2990    0.0000 C   0  0  0  0  0  0  0  0  0  0  0  0
   -1.5000    0.0000    0.0000 C   0  0  0  0  0  0  0  0  0  0  0  0
   -3.0000    0.0000    0.0000 N   0  0  0  0  0  4  0  0  0  0  0  0
   -3.7500    1.2990    0.0000 O   0  0  0  0  0  1  0  0  0  0  0  0
   -3.7500   -1.2990    0.0000 O   0  0  0  0  0  0  0  0  0  0  0  0
   -0.7500    1.2990    0.0000 C   0  0  0  0  0  0  0  0  0  0  0  0
    0.7500    1.2990    0.0000 C   0  0  0  0  0  0  0  0  0  0  0  0
    1.5000    2.5981    0.0000 N   0  0  0  0  0  4  0  0  0  0  0  0
    3.0000    2.5981    0.0000 O   0  0  0  0  0  1  0  0  0  0  0  0
    0.7500    3.8971    0.0000 O   0  0  0  0  0  0  0  0  0  0  0  0
  1  2  1  0
  2  3  2  0
  3  4  1  0
  4  5  2  0
  5  6  1  0
  6  7  1  0
  6  8  2  0
  5  9  1  0
  9 10  2  0
 10 11  1  0
 11 12  1  0
 11 13  2  0
 10  2  1  0
M  CHG  4   6   1   7  -1  11   1  12  -1
M  END
>  <Name>  (236) 
2,4-Dinitrophenol

>  <logK_La_z=3.0_T=25_I=0.1>  (236) 
1.0

$$$$

     RDKit          2D

 15 15  0  0  0  0  0  0  0  0999 V2000
    3.0000    0.0000    0.0000 Br  0  0  0  0  0  0  0  0  0  0  0  0
    1.5000    0.0000    0.0000 C   0  0  0  0  0  0  0  0  0  0  0  0
    0.7500   -1.2990    0.0000 C   0  0  0  0  0  0  0  0  0  0  0  0
   -0.7500   -1.2990    0.0000 C   0  0  0  0  0  0  0  0  0  0  0  0
   -1.5000   -2.5981    0.0000 C   0  0  0  0  0  0  0  0  0  0  0  0
   -0.7500   -3.8971    0.0000 O   0  0  0  0  0  0  0  0  0  0  0  0
   -3.0000   -2.5981    0.0000 O   0  0  0  0  0  0  0  0  0  0  0  0
   -1.5000    0.0000    0.0000 C   0  0  0  0  0  0  0  0  0  0  0  0
   -0.7500    1.2990    0.0000 C   0  0  0  0  0  0  0  0  0  0  0  0
    0.7500    1.2990    0.0000 C   0  0  0  0  0  0  0  0  0  0  0  0
   -1.5000    2.5981    0.0000 S   0  0  0  0  0  0  0  0  0  0  0  0
   -0.2010    3.3481    0.0000 O   0  0  0  0  0  0  0  0  0  0  0  0
   -2.7990    1.8481    0.0000 O   0  0  0  0  0  0  0  0  0  0  0  0
   -2.2500    3.8971    0.0000 O   0  0  0  0  0  0  0  0  0  0  0  0
    1.5000   -2.5981    0.0000 O   0  0  0  0  0  0  0  0  0  0  0  0
  1  2  1  0
  2  3  2  0
  3  4  1  0
  4  5  1  0
  5  6  2  0
  5  7  1  0
  4  8  2  0
  8  9  1  0
  9 10  2  0
  9 11  1  0
 11 12  2  0
 11 13  2  0
 11 14  1  0
  3 15  1  0
 10  2  1  0
M  END
>  <Name>  (237) 
3-Bromo-2-hydroxy-5-sulfobenzoic_acid_(3-Bromo-5-sulfosalicylic_acid)

>  <logK_La_z=3.0_T=25_I=0.1>  (237) 
6.49

$$$$

     RDKit          2D

 10 10  0  0  0  0  0  0  0  0999 V2000
    3.0000    0.0000    0.0000 Cl  0  0  0  0  0  0  0  0  0  0  0  0
    1.5000    0.0000    0.0000 C   0  0  0  0  0  0  0  0  0  0  0  0
    0.7500   -1.2990    0.0000 C   0  0  0  0  0  0  0  0  0  0  0  0
   -0.7500   -1.2990    0.0000 C   0  0  0  0  0  0  0  0  0  0  0  0
   -1.5000    0.0000    0.0000 C   0  0  0  0  0  0  0  0  0  0  0  0
   -0.7500    1.2990    0.0000 C   0  0  0  0  0  0  0  0  0  0  0  0
    0.7500    1.2990    0.0000 C   0  0  0  0  0  0  0  0  0  0  0  0
    1.5000    2.5981    0.0000 C   0  0  0  0  0  0  0  0  0  0  0  0
    3.0000    2.5981    0.0000 O   0  0  0  0  0  0  0  0  0  0  0  0
   -1.5000    2.5981    0.0000 O   0  0  0  0  0  0  0  0  0  0  0  0
  1  2  1  0
  2  3  2  0
  3  4  1  0
  4  5  2  0
  5  6  1  0
  6  7  2  0
  7  8  1  0
  8  9  2  0
  6 10  1  0
  7  2  1  0
M  END
>  <Name>  (238) 
6-Chloro-2-hydroxybenzaldehyde_(6-Chlorosalicylaldehyde)

>  <logK_La_z=3.0_T=25_I=0.1>  (238) 
4.08

$$$$

     RDKit          2D

 10 10  0  0  0  0  0  0  0  0999 V2000
    3.0000    0.0000    0.0000 O   0  0  0  0  0  0  0  0  0  0  0  0
    1.5000    0.0000    0.0000 C   0  0  0  0  0  0  0  0  0  0  0  0
    0.7500   -1.2990    0.0000 C   0  0  0  0  0  0  0  0  0  0  0  0
   -0.7500   -1.2990    0.0000 C   0  0  0  0  0  0  0  0  0  0  0  0
   -1.5000    0.0000    0.0000 C   0  0  0  0  0  0  0  0  0  0  0  0
   -0.7500    1.2990    0.0000 C   0  0  0  0  0  0  0  0  0  0  0  0
    0.7500    1.2990    0.0000 C   0  0  0  0  0  0  0  0  0  0  0  0
    1.5000    2.5981    0.0000 N   0  0  0  0  0  0  0  0  0  0  0  0
    3.0000    2.5981    0.0000 O   0  0  0  0  0  0  0  0  0  0  0  0
   -1.5000   -2.5981    0.0000 O   0  0  0  0  0  0  0  0  0  0  0  0
  1  2  1  0
  2  3  2  0
  3  4  1  0
  4  5  2  0
  5  6  1  0
  6  7  2  0
  7  8  1  0
  8  9  2  0
  4 10  1  0
  7  2  1  0
M  END
>  <Name>  (239) 
1,3-Dihydroxy-4-nitrosobenzene_(Nitrosoresorcinol)

>  <logK_La_z=3.0_T=25_I=0.1>  (239) 
5.42

$$$$

     RDKit          2D

  9  9  0  0  0  0  0  0  0  0999 V2000
    1.7286    0.0000    0.0000 C   0  0  0  0  0  0  0  0  0  0  0  0
    3.2286   -0.0000    0.0000 O   0  0  0  0  0  0  0  0  0  0  0  0
    1.0777    1.3515    0.0000 C   0  0  0  0  0  0  0  0  0  0  0  0
   -0.3846    1.6852    0.0000 C   0  0  0  0  0  0  0  0  0  0  0  0
   -1.5574    0.7500    0.0000 C   0  0  0  0  0  0  0  0  0  0  0  0
   -1.5574   -0.7500    0.0000 C   0  0  0  0  0  0  0  0  0  0  0  0
   -0.3846   -1.6852    0.0000 C   0  0  0  0  0  0  0  0  0  0  0  0
    1.0777   -1.3515    0.0000 C   0  0  0  0  0  0  0  0  0  0  0  0
    2.0130   -2.5242    0.0000 O   0  0  0  0  0  0  0  0  0  0  0  0
  1  2  1  0
  1  3  2  0
  3  4  1  0
  4  5  2  0
  5  6  1  0
  6  7  2  0
  7  8  1  0
  8  9  2  0
  8  1  1  0
M  END
>  <Name>  (240) 
1-Hydroxycyclohepta-3,5,7-trien-2-one_(Tropolone)

>  <logK_La_z=3.0_T=25_I=0.1>  (240) 
6.19

$$$$

     RDKit          2D

  9  9  0  0  0  0  0  0  0  0999 V2000
    1.5000    0.0000    0.0000 O   0  0  0  0  0  0  0  0  0  0  0  0
    0.7500   -1.2990    0.0000 C   0  0  0  0  0  0  0  0  0  0  0  0
   -0.7500   -1.2990    0.0000 C   0  0  0  0  0  0  0  0  0  0  0  0
   -1.5000    0.0000    0.0000 C   0  0  0  0  0  0  0  0  0  0  0  0
   -3.0000    0.0000    0.0000 O   0  0  0  0  0  0  0  0  0  0  0  0
   -0.7500    1.2990    0.0000 C   0  0  0  0  0  0  0  0  0  0  0  0
   -1.5000    2.5981    0.0000 O   0  0  0  0  0  0  0  0  0  0  0  0
    0.7500    1.2990    0.0000 C   0  0  0  0  0  0  0  0  0  0  0  0
    1.5000    2.5981    0.0000 C   0  0  0  0  0  0  0  0  0  0  0  0
  1  2  1  0
  2  3  2  0
  3  4  1  0
  4  5  2  0
  4  6  1  0
  6  7  1  0
  6  8  2  0
  8  9  1  0
  8  1  1  0
M  END
>  <Name>  (241) 
3-Hydroxy-2-methyl-4-pyrone_(Maltol)

>  <logK_La_z=3.0_T=25_I=0.1>  (241) 
5.61

>  <logK_La_z=3.0_T=30_I=0.1>  (241) 
5.58

$$$$

     RDKit          2D

 12 12  0  0  0  0  0  0  0  0999 V2000
    1.2760    0.0000    0.0000 C   0  0  0  0  0  0  0  0  0  0  0  0
    2.7760    0.0000    0.0000 C   0  0  0  0  0  0  0  0  0  0  0  0
    3.5260    1.2990    0.0000 O   0  0  0  0  0  0  0  0  0  0  0  0
    3.5260   -1.2990    0.0000 C   0  0  0  0  0  0  0  0  0  0  0  0
    5.0260   -1.2990    0.0000 O   0  0  0  0  0  0  0  0  0  0  0  0
    0.3943    1.2135    0.0000 C   0  0  0  0  0  0  0  0  0  0  0  0
    0.8578    2.6401    0.0000 O   0  0  0  0  0  0  0  0  0  0  0  0
   -1.0323    0.7500    0.0000 C   0  0  0  0  0  0  0  0  0  0  0  0
   -2.2458    1.6317    0.0000 O   0  0  0  0  0  0  0  0  0  0  0  0
   -1.0323   -0.7500    0.0000 C   0  0  0  0  0  0  0  0  0  0  0  0
   -2.2458   -1.6317    0.0000 O   0  0  0  0  0  0  0  0  0  0  0  0
    0.3943   -1.2135    0.0000 O   0  0  0  0  0  0  0  0  0  0  0  0
  1  2  1  0
  2  3  1  1
  2  4  1  0
  4  5  1  0
  1  6  1  0
  6  7  1  0
  6  8  2  0
  8  9  1  0
  8 10  1  0
 10 11  2  0
 10 12  1  0
  1 12  1  1
M  END
>  <Name>  (242) 
L-3,4-Dihydroxy-5-(1,2-dihydroxyethyl)-2,5-H-oxole-2-one_(L-Ascorbic_acid)

>  <logK_La_z=3.0_T=25_I=2.0>  (242) 
1.41

$$$$

     RDKit          2D

  5  4  0  0  0  0  0  0  0  0999 V2000
    0.0000    0.0000    0.0000 C   0  0  0  0  0  0  0  0  0  0  0  0
    1.2990    0.7500    0.0000 C   0  0  0  0  0  0  0  0  0  0  0  0
    2.5981   -0.0000    0.0000 N   0  0  0  0  0  0  0  0  0  0  0  0
    3.8971    0.7500    0.0000 O   0  0  0  0  0  0  0  0  0  0  0  0
    1.2990    2.2500    0.0000 O   0  0  0  0  0  0  0  0  0  0  0  0
  1  2  1  0
  2  3  1  0
  3  4  1  0
  2  5  2  0
M  END
>  <Name>  (243) 
Acetohydroxamic_acid

>  <logK_La_z=3.0_T=20_I=0.1>  (243) 
5.16

$$$$

     RDKit          2D

 10 10  0  0  0  0  0  0  0  0999 V2000
    1.5000    0.0000    0.0000 C   0  0  0  0  0  0  0  0  0  0  0  0
    0.7500   -1.2990    0.0000 C   0  0  0  0  0  0  0  0  0  0  0  0
   -0.7500   -1.2990    0.0000 C   0  0  0  0  0  0  0  0  0  0  0  0
   -1.5000    0.0000    0.0000 C   0  0  0  0  0  0  0  0  0  0  0  0
   -0.7500    1.2990    0.0000 C   0  0  0  0  0  0  0  0  0  0  0  0
    0.7500    1.2990    0.0000 C   0  0  0  0  0  0  0  0  0  0  0  0
    3.0000    0.0000    0.0000 N   0  0  0  0  0  0  0  0  0  0  0  0
    3.7500    1.2990    0.0000 O   0  0  0  0  0  0  0  0  0  0  0  0
    3.7500   -1.2990    0.0000 N   0  0  0  0  0  0  0  0  0  0  0  0
    5.2500   -1.2990    0.0000 O   0  0  0  0  0  0  0  0  0  0  0  0
  1  2  2  0
  2  3  1  0
  3  4  2  0
  4  5  1  0
  5  6  2  0
  1  7  1  0
  7  8  1  0
  7  9  1  0
  9 10  2  0
  6  1  1  0
M  END
>  <Name>  (244) 
N-Nitrosophenylhydroxylamine_(Cupferron:_L.NH4)

>  <logK_La_z=3.0_T=25_I=0.1>  (244) 
12.9

$$$$

     RDKit          2D

  1  0  0  0  0  0  0  0  0  0999 V2000
    0.0000    0.0000    0.0000 O   0  0  0  0  0  1  0  0  0  0  0  0
M  CHG  1   1  -1
M  END
>  <Name>  (245) 
Hydroxide_ion

>  <logK_La_z=3.0_T=25_I=0.5>  (245) 
4.67

>  <logK_La_z=3.0_T=25_I=3.0>  (245) 
3.9

>  <logK_La_z=3.0_T=25_I=0.0>  (245) 
5.5

$$$$

     RDKit          2D

  3  2  0  0  0  0  0  0  0  0999 V2000
    0.0000    0.0000    0.0000 C   0  0  0  0  0  0  0  0  0  0  0  0
   -0.0000   -1.5000    0.0000 S   0  0  0  0  0  0  0  0  0  0  0  0
    0.0000    1.5000    0.0000 N   0  0  0  0  0  0  0  0  0  0  0  0
  1  2  1  0
  1  3  3  0
M  END
>  <Name>  (246) 
Hydrogen_thiocyanate_(Thiocyanic_acid)

>  <logK_La_z=3.0_T=30_I=1.0>  (246) 
0.12

>  <logK_La_z=3.0_T=25_I=2.0>  (246) 
0.2

>  <logK_La_z=3.0_T=25_I=5.0>  (246) 
0.24

$$$$

     RDKit          2D

  3  2  0  0  0  0  0  0  0  0999 V2000
    1.2990    0.7500    0.0000 N   0  0  0  0  0  4  0  0  0  0  0  0
    0.0000    0.0000    0.0000 N   0  0  0  0  0  0  0  0  0  0  0  0
    2.5981    1.5000    0.0000 N   0  0  0  0  0  2  0  0  0  0  0  0
  1  2  2  0
  1  3  2  0
M  CHG  2   1   1   3  -1
M  END
>  <Name>  (247) 
Hydrogen_azide_(Hydrazoic_acid)

>  <logK_La_z=3.0_T=25_I=1.0>  (247) 
0.62

>  <logK_La_z=3.0_T=25_I=3.0>  (247) 
0.65

$$$$

     RDKit          2D

  4  3  0  0  0  0  0  0  0  0999 V2000
    1.2990    0.7500    0.0000 O   0  0  0  0  0  1  0  0  0  0  0  0
    0.0000    0.0000    0.0000 N   0  0  0  0  0  4  0  0  0  0  0  0
   -1.2990    0.7500    0.0000 O   0  0  0  0  0  1  0  0  0  0  0  0
   -0.0000   -1.5000    0.0000 O   0  0  0  0  0  0  0  0  0  0  0  0
  1  2  1  0
  2  3  1  0
  2  4  2  0
M  CHG  3   1  -1   2   1   3  -1
M  END
>  <Name>  (248) 
Nitrate_ion

>  <logK_La_z=3.0_T=25_I=1.0>  (248) 
0.1

$$$$

     RDKit          2D

 12 12  0  0  0  0  0  0  0  0999 V2000
    1.5000    0.0000    0.0000 P   0  0  0  0  0  0  0  0  0  0  0  0
    2.6491    0.9642    0.0000 O   0  0  0  0  0  0  0  0  0  0  0  0
    2.6491   -0.9642    0.0000 O   0  0  0  0  0  0  0  0  0  0  0  0
    0.7500   -1.2990    0.0000 O   0  0  0  0  0  0  0  0  0  0  0  0
   -0.7500   -1.2990    0.0000 P   0  0  0  0  0  0  0  0  0  0  0  0
   -0.4895   -2.7762    0.0000 O   0  0  0  0  0  0  0  0  0  0  0  0
   -2.1595   -1.8121    0.0000 O   0  0  0  0  0  0  0  0  0  0  0  0
   -1.5000    0.0000    0.0000 O   0  0  0  0  0  0  0  0  0  0  0  0
   -0.7500    1.2990    0.0000 P   0  0  0  0  0  0  0  0  0  0  0  0
   -2.1595    1.8121    0.0000 O   0  0  0  0  0  0  0  0  0  0  0  0
   -0.4895    2.7762    0.0000 O   0  0  0  0  0  0  0  0  0  0  0  0
    0.7500    1.2990    0.0000 O   0  0  0  0  0  0  0  0  0  0  0  0
  1  2  2  0
  1  3  1  0
  1  4  1  0
  4  5  1  0
  5  6  2  0
  5  7  1  0
  5  8  1  0
  8  9  1  0
  9 10  2  0
  9 11  1  0
  9 12  1  0
 12  1  1  0
M  END
>  <Name>  (249) 
Hydrogen_trimetaphosphate_(Trimetaphosphoric_acid)

>  <logK_La_z=3.0_T=25_I=0.0>  (249) 
5.7

$$$$

     RDKit          2D

  1  0  0  0  0  0  0  0  0  0999 V2000
    0.0000    0.0000    0.0000 F   0  0  0  0  0  0  0  0  0  0  0  0
M  END
>  <Name>  (250) 
Hydrogen_fluoride_(Hydrofluoric_acid)

>  <logK_La_z=3.0_T=25_I=0.1>  (250) 
3.0

>  <logK_La_z=3.0_T=25_I=0.5>  (250) 
2.66

>  <logK_La_z=3.0_T=25_I=1.0>  (250) 
2.67

>  <logK_La_z=3.0_T=25_I=0.0>  (250) 
3.6

$$$$

     RDKit          2D

  1  0  0  0  0  0  0  0  0  0999 V2000
    0.0000    0.0000    0.0000 Cl  0  0  0  0  0 15  0  0  0  0  0  0
M  CHG  1   1  -1
M  END
>  <Name>  (251) 
Chloride_ion

>  <logK_La_z=3.0_T=25_I=1.0>  (251) 
-0.1

>  <logK_La_z=3.0_T=25_I=4.0>  (251) 
-0.2

$$$$

     RDKit          2D

  4  3  0  0  0  0  0  0  0  0999 V2000
    1.2990    0.7500    0.0000 Cl  0  0  0  0  0  0  0  0  0  0  0  0
    0.0000    0.0000    0.0000 O   0  0  0  0  0  1  0  0  0  0  0  0
    2.5981   -0.0000    0.0000 O   0  0  0  0  0  0  0  0  0  0  0  0
    1.2990    2.2500    0.0000 O   0  0  0  0  0  0  0  0  0  0  0  0
  1  2  1  0
  1  3  1  0
  1  4  1  0
M  CHG  4   1   2   2  -1   3  -1   4  -1
M  END
>  <Name>  (252) 
Chlorate_ion

>  <logK_La_z=3.0_T=25_I=1.0>  (252) 
-0.2

$$$$

     RDKit          2D

 54 57  0  0  0  0  0  0  0  0999 V2000
   -0.7500  -22.0836    0.0000 O   0  0  0  0  0  0  0  0  0  0  0  0
    0.7500  -22.0836    0.0000 C   0  0  0  0  0  0  0  0  0  0  0  0
    1.5000  -20.7846    0.0000 N   0  0  0  0  0  0  0  0  0  0  0  0
    0.7500  -19.4856    0.0000 C   0  0  0  0  0  0  0  0  0  0  0  0
    1.5000  -18.1865    0.0000 C   0  0  0  0  0  0  0  0  0  0  0  0
    0.7500  -16.8875    0.0000 C   0  0  0  0  0  0  0  0  0  0  0  0
    1.5000  -15.5885    0.0000 N   0  0  0  0  0  0  0  0  0  0  0  0
    0.7500  -14.2894    0.0000 C   0  0  0  0  0  0  0  0  0  0  0  0
    1.5000  -12.9904    0.0000 C   0  0  0  0  0  0  0  0  0  0  0  0
    0.7500  -11.6913    0.0000 C   0  0  0  0  0  0  0  0  0  0  0  0
    1.5000  -10.3923    0.0000 C   0  0  0  0  0  0  0  0  0  0  0  0
    0.7500   -9.0933    0.0000 N   0  0  0  0  0  0  0  0  0  0  0  0
    1.5000   -7.7942    0.0000 C   0  0  0  0  0  0  0  0  0  0  0  0
    0.7500   -6.4952    0.0000 C   0  0  0  0  0  0  0  0  0  0  0  0
    1.5000   -5.1962    0.0000 C   0  0  0  0  0  0  0  0  0  0  0  0
    0.7500   -3.8971    0.0000 N   0  0  0  0  0  0  0  0  0  0  0  0
    1.5000   -2.5981    0.0000 C   0  0  0  0  0  0  0  0  0  0  0  0
    3.0000   -2.5981    0.0000 O   0  0  0  0  0  0  0  0  0  0  0  0
    0.7500   -1.2990    0.0000 C   0  0  0  0  0  0  0  0  0  0  0  0
    1.5000    0.0000    0.0000 C   0  0  0  0  0  0  0  0  0  0  0  0
    0.7500    1.2990    0.0000 C   0  0  0  0  0  0  0  0  0  0  0  0
   -0.7500    1.2990    0.0000 C   0  0  0  0  0  0  0  0  0  0  0  0
   -1.5000    0.0000    0.0000 C   0  0  0  0  0  0  0  0  0  0  0  0
   -3.0000    0.0000    0.0000 O   0  0  0  0  0  0  0  0  0  0  0  0
   -0.7500   -1.2990    0.0000 N   0  0  0  0  0  0  0  0  0  0  0  0
   -1.5000   -2.5981    0.0000 O   0  0  0  0  0  0  0  0  0  0  0  0
   -0.7500   -9.0933    0.0000 C   0  0  0  0  0  0  0  0  0  0  0  0
   -1.5000   -7.7942    0.0000 O   0  0  0  0  0  0  0  0  0  0  0  0
   -1.5000  -10.3923    0.0000 C   0  0  0  0  0  0  0  0  0  0  0  0
   -0.7500  -11.6913    0.0000 C   0  0  0  0  0  0  0  0  0  0  0  0
   -1.5000  -12.9904    0.0000 C   0  0  0  0  0  0  0  0  0  0  0  0
   -3.0000  -12.9904    0.0000 C   0  0  0  0  0  0  0  0  0  0  0  0
   -3.7500  -11.6913    0.0000 C   0  0  0  0  0  0  0  0  0  0  0  0
   -5.2500  -11.6913    0.0000 O   0  0  0  0  0  0  0  0  0  0  0  0
   -3.0000  -10.3923    0.0000 N   0  0  0  0  0  0  0  0  0  0  0  0
   -3.7500   -9.0933    0.0000 O   0  0  0  0  0  0  0  0  0  0  0  0
    3.0000  -15.5885    0.0000 C   0  0  0  0  0  0  0  0  0  0  0  0
    3.7500  -14.2894    0.0000 O   0  0  0  0  0  0  0  0  0  0  0  0
    3.7500  -16.8875    0.0000 C   0  0  0  0  0  0  0  0  0  0  0  0
    3.0000  -18.1865    0.0000 C   0  0  0  0  0  0  0  0  0  0  0  0
    3.7500  -19.4856    0.0000 C   0  0  0  0  0  0  0  0  0  0  0  0
    5.2500  -19.4856    0.0000 C   0  0  0  0  0  0  0  0  0  0  0  0
    6.0000  -18.1865    0.0000 C   0  0  0  0  0  0  0  0  0  0  0  0
    7.5000  -18.1865    0.0000 O   0  0  0  0  0  0  0  0  0  0  0  0
    5.2500  -16.8875    0.0000 N   0  0  0  0  0  0  0  0  0  0  0  0
    6.0000  -15.5885    0.0000 O   0  0  0  0  0  0  0  0  0  0  0  0
    1.5000  -23.3827    0.0000 C   0  0  0  0  0  0  0  0  0  0  0  0
    0.7500  -24.6817    0.0000 C   0  0  0  0  0  0  0  0  0  0  0  0
    1.5000  -25.9808    0.0000 C   0  0  0  0  0  0  0  0  0  0  0  0
    3.0000  -25.9808    0.0000 C   0  0  0  0  0  0  0  0  0  0  0  0
    3.7500  -24.6817    0.0000 C   0  0  0  0  0  0  0  0  0  0  0  0
    5.2500  -24.6817    0.0000 O   0  0  0  0  0  0  0  0  0  0  0  0
    3.0000  -23.3827    0.0000 N   0  0  0  0  0  0  0  0  0  0  0  0
    3.7500  -22.0836    0.0000 O   0  0  0  0  0  0  0  0  0  0  0  0
  1  2  2  0
  2  3  1  0
  3  4  1  0
  4  5  1  0
  5  6  1  0
  6  7  1  0
  7  8  1  0
  8  9  1  0
  9 10  1  0
 10 11  1  0
 11 12  1  0
 12 13  1  0
 13 14  1  0
 14 15  1  0
 15 16  1  0
 16 17  1  0
 17 18  2  0
 17 19  1  0
 19 20  2  0
 20 21  1  0
 21 22  2  0
 22 23  1  0
 23 24  2  0
 23 25  1  0
 25 26  1  0
 12 27  1  0
 27 28  2  0
 27 29  1  0
 29 30  2  0
 30 31  1  0
 31 32  2  0
 32 33  1  0
 33 34  2  0
 33 35  1  0
 35 36  1  0
  7 37  1  0
 37 38  2  0
 37 39  1  0
 39 40  2  0
 40 41  1  0
 41 42  2  0
 42 43  1  0
 43 44  2  0
 43 45  1  0
 45 46  1  0
  2 47  1  0
 47 48  2  0
 48 49  1  0
 49 50  2  0
 50 51  1  0
 51 52  2  0
 51 53  1  0
 53 54  1  0
 25 19  1  0
 35 29  1  0
 45 39  1  0
 53 47  1  0
M  END
>  <Name>  (253) 
3,4,3-LI(1,2-HOPO)

>  <logK_La_z=3.0_T=25_I=0.4>  (253) 
16.4

$$$$

     RDKit          2D

 25 26  0  0  0  0  0  0  0  0999 V2000
   10.4961  -14.1763    0.0000 C   0  0  0  0  0  0  0  0  0  0  0  0
   11.3822  -13.2439    0.0000 C   0  0  0  0  0  0  0  0  0  0  0  0
   12.6955  -16.8205    0.0000 C   0  0  0  0  0  0  0  0  0  0  0  0
   11.5583  -16.3022    0.0000 C   0  0  0  0  0  0  0  0  0  0  0  0
   16.1692  -16.3720    0.0000 C   0  0  0  0  0  0  0  0  0  0  0  0
   14.9998  -17.0508    0.0000 C   0  0  0  0  0  0  0  0  0  0  0  0
   17.0952  -12.9360    0.0000 C   0  0  0  0  0  0  0  0  0  0  0  0
   17.1135  -14.2330    0.0000 C   0  0  0  0  0  0  0  0  0  0  0  0
   12.6653   -8.7536    0.0000 C   0  0  0  0  0  0  0  0  0  0  0  0
   12.6701  -10.0764    0.0000 C   0  0  0  0  0  0  0  0  0  0  0  0
   13.8186   -8.0877    0.0000 C   0  0  0  0  0  0  0  0  0  0  0  0
   13.8169  -10.7471    0.0000 C   0  0  0  0  0  0  0  0  0  0  0  0
   14.9641   -8.7718    0.0000 C   0  0  0  0  0  0  0  0  0  0  0  0
   14.9796  -10.1017    0.0000 C   0  0  0  0  0  0  0  0  0  0  0  0
   16.1021  -10.8275    0.0000 C   0  0  0  0  0  0  0  0  0  0  0  0
   11.5334  -10.7911    0.0000 C   0  0  0  0  0  0  0  0  0  0  0  0
   16.0417  -12.1584    0.0000 O   0  0  0  0  0  0  0  0  0  0  0  0
   16.0807  -15.0306    0.0000 O   0  0  0  0  0  0  0  0  0  0  0  0
   13.8862  -16.3019    0.0000 O   0  0  0  0  0  0  0  0  0  0  0  0
   10.6823  -15.4522    0.0000 O   0  0  0  0  0  0  0  0  0  0  0  0
   11.5205  -12.0446    0.0000 O   0  0  0  0  0  0  0  0  0  0  0  0
   13.7865  -12.0770    0.0000 O   0  0  0  0  0  0  0  0  0  0  0  0
   13.8240   -6.7626    0.0000 N   0  0  0  0  0  0  0  0  0  0  0  0
   14.9741   -6.0974    0.0000 O   0  0  0  0  0  0  0  0  0  0  0  0
   12.6798   -6.0880    0.0000 O   0  0  0  0  0  0  0  0  0  0  0  0
  1  2  1  0
  3  4  1  0
  5  6  1  0
  7  8  1  0
 10  9  2  0
 11  9  1  0
 12 10  1  0
 13 11  2  0
 14 12  2  0
 14 13  1  0
 14 15  1  0
 10 16  1  0
 15 17  1  0
  7 17  1  0
  8 18  1  0
  5 18  1  0
  6 19  1  0
  3 19  1  0
  4 20  1  0
  1 20  1  0
 16 21  1  0
  2 21  1  0
 12 22  1  0
 11 23  1  0
 23 24  1  0
 23 25  2  0
M  CHG  2  23   1  24  -1
M  END
>  <Name>  (254) 
(1&3-B)-18C5-17

>  <logK_La_z=3.0_T=25_I=1.0>  (254) 
3.06

$$$$

     RDKit          2D

 30 29  0  0  0  0  0  0  0  0999 V2000
    9.4403  -10.8784    0.0000 N   0  0  0  0  0  0  0  0  0  0  0  0
   10.7097  -10.0818    0.0000 C   0  0  0  0  0  0  0  0  0  0  0  0
   12.0162  -10.7921    0.0000 C   0  0  0  0  0  0  0  0  0  0  0  0
   13.3222  -10.0614    0.0000 C   0  0  0  0  0  0  0  0  0  0  0  0
   14.6180  -10.8827    0.0000 N   0  0  0  0  0  0  0  0  0  0  0  0
   15.3243   -9.5205    0.0000 C   0  0  0  0  0  0  0  0  0  0  0  0
   16.7742   -9.3657    0.0000 C   0  0  0  0  0  0  0  0  0  0  0  0
   17.6333   -8.1703    0.0000 C   0  0  0  0  0  0  0  0  0  0  0  0
   19.1423   -8.2792    0.0000 N   0  0  0  0  0  0  0  0  0  0  0  0
   15.8080  -11.7662    0.0000 C   0  0  0  0  0  0  0  0  0  0  0  0
   15.9558  -13.2308    0.0000 C   0  0  0  0  0  0  0  0  0  0  0  0
   13.7546  -12.1439    0.0000 C   0  0  0  0  0  0  0  0  0  0  0  0
    8.1335  -10.1238    0.0000 C   0  0  0  0  0  0  0  0  0  0  0  0
    8.1175   -8.6213    0.0000 C   0  0  0  0  0  0  0  0  0  0  0  0
    9.4256  -12.3781    0.0000 C   0  0  0  0  0  0  0  0  0  0  0  0
    8.1366  -13.1500    0.0000 C   0  0  0  0  0  0  0  0  0  0  0  0
   19.9236   -9.5398    0.0000 C   0  0  0  0  0  0  0  0  0  0  0  0
   19.4200  -10.9239    0.0000 C   0  0  0  0  0  0  0  0  0  0  0  0
   19.9180   -6.9806    0.0000 C   0  0  0  0  0  0  0  0  0  0  0  0
   21.4163   -6.9638    0.0000 C   0  0  0  0  0  0  0  0  0  0  0  0
    9.3672   -7.7882    0.0000 O   0  0  0  0  0  0  0  0  0  0  0  0
    6.7796   -7.9165    0.0000 O   0  0  0  0  0  0  0  0  0  0  0  0
    6.7916  -12.4780    0.0000 O   0  0  0  0  0  0  0  0  0  0  0  0
    8.1881  -14.6605    0.0000 O   0  0  0  0  0  0  0  0  0  0  0  0
   17.3553  -13.8330    0.0000 O   0  0  0  0  0  0  0  0  0  0  0  0
   14.8602  -14.2708    0.0000 O   0  0  0  0  0  0  0  0  0  0  0  0
   20.3898  -12.1016    0.0000 O   0  0  0  0  0  0  0  0  0  0  0  0
   17.9999  -11.3144    0.0000 O   0  0  0  0  0  0  0  0  0  0  0  0
   22.2560   -8.2102    0.0000 O   0  0  0  0  0  0  0  0  0  0  0  0
   22.1226   -5.6261    0.0000 O   0  0  0  0  0  0  0  0  0  0  0  0
  1  2  1  0
  2  3  1  0
  3  4  1  0
  4  5  1  0
  5  6  1  0
  6  7  1  0
  7  8  1  0
  8  9  1  0
  5 10  1  0
 10 11  1  0
  5 12  1  0
  1 13  1  0
 13 14  1  0
  1 15  1  0
 15 16  1  0
  9 17  1  0
 17 18  1  0
  9 19  1  0
 19 20  1  0
 14 21  2  0
 14 22  1  0
 16 23  1  0
 16 24  2  0
 11 25  1  0
 11 26  2  0
 18 27  1  0
 18 28  2  0
 20 29  1  0
 20 30  2  0
M  CHG  1   5   1
M  END
>  <Name>  (255) 
(Bis[3-(bis(carboxymethyl)amino)propyllmethylammonio}acetate

>  <logK_La_z=3.0_T=25_I=1.0>  (255) 
7.58

$$$$

     RDKit          2D

 24 23  0  0  0  0  0  0  0  0999 V2000
   12.7091  -12.9934    0.0000 N   0  0  0  0  0  0  0  0  0  0  0  0
   14.6837  -14.1324    0.0000 C   0  0  0  0  0  0  0  0  0  0  0  0
   16.6273  -12.9934    0.0000 C   0  0  0  0  0  0  0  0  0  0  0  0
   18.6020  -14.1324    0.0000 N   0  0  0  0  0  0  0  0  0  0  0  0
   18.6020  -16.3953    0.0000 C   0  0  0  0  0  0  0  0  0  0  0  0
   20.5762  -17.5344    0.0000 C   0  0  0  0  0  0  0  0  0  0  0  0
   20.5762  -12.9934    0.0000 C   0  0  0  0  0  0  0  0  0  0  0  0
   20.5762  -10.7153    0.0000 C   0  0  0  0  0  0  0  0  0  0  0  0
   12.7091  -10.7153    0.0000 C   0  0  0  0  0  0  0  0  0  0  0  0
   10.7349   -9.5914    0.0000 C   0  0  0  0  0  0  0  0  0  0  0  0
   10.7349  -14.1324    0.0000 C   0  0  0  0  0  0  0  0  0  0  0  0
   10.7349  -16.4104    0.0000 C   0  0  0  0  0  0  0  0  0  0  0  0
    8.7607  -10.7304    0.0000 O   0  0  0  0  0  0  0  0  0  0  0  0
   10.7349   -7.3134    0.0000 O   0  0  0  0  0  0  0  0  0  0  0  0
   12.7091  -17.5344    0.0000 O   0  0  0  0  0  0  0  0  0  0  0  0
    8.7607  -17.5494    0.0000 O   0  0  0  0  0  0  0  0  0  0  0  0
   22.5504  -16.3953    0.0000 O   0  0  0  0  0  0  0  0  0  0  0  0
   20.5762  -19.8124    0.0000 O   0  0  0  0  0  0  0  0  0  0  0  0
   18.6020   -9.5763    0.0000 O   0  0  0  0  0  0  0  0  0  0  0  0
   22.5504   -9.5763    0.0000 O   0  0  0  0  0  0  0  0  0  0  0  0
   14.6837  -16.3953    0.0000 C   0  0  0  0  0  0  0  0  0  0  0  0
   16.6273  -17.5344    0.0000 C   0  0  0  0  0  0  0  0  0  0  0  0
   16.6273  -19.8124    0.0000 C   0  0  0  0  0  0  0  0  0  0  0  0
   14.6837  -20.9514    0.0000 C   0  0  0  0  0  0  0  0  0  0  0  0
  1  2  1  0
  2  3  1  0
  3  4  1  0
  4  5  1  0
  5  6  1  0
  4  7  1  0
  7  8  1  0
  1  9  1  0
  9 10  1  0
  1 11  1  0
 11 12  1  0
 10 13  1  0
 10 14  2  0
 12 15  2  0
 12 16  1  0
  6 17  2  0
  6 18  1  0
  8 19  1  0
  8 20  2  0
  2 21  1  0
 21 22  1  0
 22 23  1  0
 23 24  1  0
M  END
>  <Name>  (256) 
(Butyl-ethylene)dinitrilotetraacetic

>  <logK_La_z=3.0_T=25_I=1.0>  (256) 
16.5

$$$$

     RDKit          2D

 26 25  0  0  0  0  0  0  0  0999 V2000
   11.3022  -10.4112    0.0000 N   0  0  0  0  0  0  0  0  0  0  0  0
   13.2750  -11.5503    0.0000 C   0  0  0  0  0  0  0  0  0  0  0  0
   15.2479  -10.4112    0.0000 C   0  0  0  0  0  0  0  0  0  0  0  0
   17.2207  -11.5502    0.0000 N   0  0  0  0  0  0  0  0  0  0  0  0
   17.2207  -13.8283    0.0000 C   0  0  0  0  0  0  0  0  0  0  0  0
   19.1936  -14.9673    0.0000 C   0  0  0  0  0  0  0  0  0  0  0  0
   19.1935  -10.4112    0.0000 C   0  0  0  0  0  0  0  0  0  0  0  0
   19.1935   -8.1332    0.0000 C   0  0  0  0  0  0  0  0  0  0  0  0
   11.3022   -8.1332    0.0000 C   0  0  0  0  0  0  0  0  0  0  0  0
    9.3293   -6.9942    0.0000 C   0  0  0  0  0  0  0  0  0  0  0  0
    9.3293  -11.5503    0.0000 C   0  0  0  0  0  0  0  0  0  0  0  0
    9.3293  -13.8283    0.0000 C   0  0  0  0  0  0  0  0  0  0  0  0
    7.3565   -8.1332    0.0000 O   0  0  0  0  0  0  0  0  0  0  0  0
    9.3293   -4.7161    0.0000 O   0  0  0  0  0  0  0  0  0  0  0  0
   11.3022  -14.9673    0.0000 O   0  0  0  0  0  0  0  0  0  0  0  0
    7.3565  -14.9673    0.0000 O   0  0  0  0  0  0  0  0  0  0  0  0
   21.1664  -13.8283    0.0000 O   0  0  0  0  0  0  0  0  0  0  0  0
   19.1936  -17.2453    0.0000 O   0  0  0  0  0  0  0  0  0  0  0  0
   17.2207   -6.9942    0.0000 O   0  0  0  0  0  0  0  0  0  0  0  0
   21.1664   -6.9942    0.0000 O   0  0  0  0  0  0  0  0  0  0  0  0
   13.2750  -13.8283    0.0000 C   0  0  0  0  0  0  0  0  0  0  0  0
   15.2479  -14.9673    0.0000 C   0  0  0  0  0  0  0  0  0  0  0  0
   15.2479  -17.2453    0.0000 C   0  0  0  0  0  0  0  0  0  0  0  0
   17.2207  -18.3844    0.0000 C   0  0  0  0  0  0  0  0  0  0  0  0
   17.2207  -20.6624    0.0000 C   0  0  0  0  0  0  0  0  0  0  0  0
   19.1936  -21.8014    0.0000 C   0  0  0  0  0  0  0  0  0  0  0  0
  1  2  1  0
  2  3  1  0
  3  4  1  0
  4  5  1  0
  5  6  1  0
  4  7  1  0
  7  8  1  0
  1  9  1  0
  9 10  1  0
  1 11  1  0
 11 12  1  0
 10 13  1  0
 10 14  2  0
 12 15  2  0
 12 16  1  0
  6 17  2  0
  6 18  1  0
  8 19  1  0
  8 20  2  0
  2 21  1  0
 21 22  1  0
 22 23  1  0
 23 24  1  0
 24 25  1  0
 25 26  1  0
M  END
>  <Name>  (257) 
(Hexyl-ethylene)dinitrilotetraacetic

>  <logK_La_z=3.0_T=25_I=1.0>  (257) 
16.5

$$$$

     RDKit          2D

 23 22  0  0  0  0  0  0  0  0999 V2000
   11.5265   -9.7062    0.0000 N   0  0  0  0  0  0  0  0  0  0  0  0
   13.4994  -10.8452    0.0000 C   0  0  0  0  0  0  0  0  0  0  0  0
   15.4722   -9.7062    0.0000 C   0  0  0  0  0  0  0  0  0  0  0  0
   17.4450  -10.8452    0.0000 N   0  0  0  0  0  0  0  0  0  0  0  0
   17.4450  -13.1232    0.0000 C   0  0  0  0  0  0  0  0  0  0  0  0
   19.4179  -14.2622    0.0000 C   0  0  0  0  0  0  0  0  0  0  0  0
   19.4179   -9.7062    0.0000 C   0  0  0  0  0  0  0  0  0  0  0  0
   19.4179   -7.4281    0.0000 C   0  0  0  0  0  0  0  0  0  0  0  0
   11.5265   -7.4281    0.0000 C   0  0  0  0  0  0  0  0  0  0  0  0
    9.5537   -6.2891    0.0000 C   0  0  0  0  0  0  0  0  0  0  0  0
    9.5537  -10.8452    0.0000 C   0  0  0  0  0  0  0  0  0  0  0  0
    9.5537  -13.1232    0.0000 C   0  0  0  0  0  0  0  0  0  0  0  0
    7.5808   -7.4281    0.0000 O   0  0  0  0  0  0  0  0  0  0  0  0
    9.5537   -4.0111    0.0000 O   0  0  0  0  0  0  0  0  0  0  0  0
   11.5265  -14.2622    0.0000 O   0  0  0  0  0  0  0  0  0  0  0  0
    7.5808  -14.2622    0.0000 O   0  0  0  0  0  0  0  0  0  0  0  0
   21.3907  -13.1232    0.0000 O   0  0  0  0  0  0  0  0  0  0  0  0
   19.4179  -16.5403    0.0000 O   0  0  0  0  0  0  0  0  0  0  0  0
   17.4450   -6.2891    0.0000 O   0  0  0  0  0  0  0  0  0  0  0  0
   21.3907   -6.2891    0.0000 O   0  0  0  0  0  0  0  0  0  0  0  0
   13.4994  -13.1232    0.0000 C   0  0  0  0  0  0  0  0  0  0  0  0
   15.4722  -14.2622    0.0000 C   0  0  0  0  0  0  0  0  0  0  0  0
   15.4722  -16.5403    0.0000 C   0  0  0  0  0  0  0  0  0  0  0  0
  1  2  1  0
  2  3  1  0
  3  4  1  0
  4  5  1  0
  5  6  1  0
  4  7  1  0
  7  8  1  0
  1  9  1  0
  9 10  1  0
  1 11  1  0
 11 12  1  0
 10 13  1  0
 10 14  2  0
 12 15  2  0
 12 16  1  0
  6 17  2  0
  6 18  1  0
  8 19  1  0
  8 20  2  0
  2 21  1  0
 21 22  1  0
 22 23  1  0
M  END
>  <Name>  (258) 
(Propyl-ethylene)dinitrilotetraacetic

>  <logK_La_z=3.0_T=25_I=1.0>  (258) 
16.6

$$$$

     RDKit          2D

 26 27  0  0  0  0  0  0  0  0999 V2000
   13.9667  -11.1228    0.0000 N   0  0  0  0  0  0  0  0  0  0  0  0
   15.4727  -10.2533    0.0000 C   0  0  0  0  0  0  0  0  0  0  0  0
   16.9787  -11.1228    0.0000 C   0  0  0  0  0  0  0  0  0  0  0  0
   18.4847  -10.2533    0.0000 N   0  0  0  0  0  0  0  0  0  0  0  0
   19.9907  -11.1228    0.0000 C   0  0  0  0  0  0  0  0  0  0  0  0
   12.4607  -10.2533    0.0000 C   0  0  0  0  0  0  0  0  0  0  0  0
   12.4607   -8.5144    0.0000 P   0  0  0  0  0  0  0  0  0  0  0  0
   19.9907  -12.8618    0.0000 P   0  0  0  0  0  0  0  0  0  0  0  0
   21.4967  -10.2533    0.0000 C   0  0  0  0  0  0  0  0  0  0  0  0
   21.4967   -8.5144    0.0000 N   0  0  0  0  0  0  0  0  0  0  0  0
   23.0027  -11.1228    0.0000 C   0  0  0  0  0  0  0  0  0  0  0  0
   23.0027   -7.6449    0.0000 C   0  0  0  0  0  0  0  0  0  0  0  0
   24.5087  -10.2533    0.0000 C   0  0  0  0  0  0  0  0  0  0  0  0
   24.5087   -8.5144    0.0000 C   0  0  0  0  0  0  0  0  0  0  0  0
   10.9548  -11.1228    0.0000 C   0  0  0  0  0  0  0  0  0  0  0  0
   10.9548  -12.8618    0.0000 N   0  0  0  0  0  0  0  0  0  0  0  0
    9.4488  -10.2533    0.0000 C   0  0  0  0  0  0  0  0  0  0  0  0
    9.4488  -13.7313    0.0000 C   0  0  0  0  0  0  0  0  0  0  0  0
    7.9428  -11.1228    0.0000 C   0  0  0  0  0  0  0  0  0  0  0  0
    7.9428  -12.8618    0.0000 C   0  0  0  0  0  0  0  0  0  0  0  0
   14.1997   -8.5144    0.0000 O   0  0  0  0  0  0  0  0  0  0  0  0
   10.7218   -8.5144    0.0000 O   0  0  0  0  0  0  0  0  0  0  0  0
   12.4607   -6.7754    0.0000 O   0  0  0  0  0  0  0  0  0  0  0  0
   21.7297  -12.8618    0.0000 O   0  0  0  0  0  0  0  0  0  0  0  0
   18.2517  -12.8618    0.0000 O   0  0  0  0  0  0  0  0  0  0  0  0
   19.9907  -14.6007    0.0000 O   0  0  0  0  0  0  0  0  0  0  0  0
  1  2  1  0
  2  3  1  0
  3  4  1  0
  4  5  1  0
  1  6  1  0
  6  7  1  0
  5  8  1  0
 10  9  2  0
 11  9  1  0
 12 10  1  0
 13 11  2  0
 14 12  2  0
 14 13  1  0
  5  9  1  0
 16 15  2  0
 17 15  1  0
 18 16  1  0
 19 17  2  0
 20 18  2  0
 20 19  1  0
  6 15  1  0
  7 21  1  0
  7 22  1  0
  7 23  2  0
  8 24  1  0
  8 25  1  0
  8 26  2  0
M  END
>  <Name>  (259) 
{ethane-1&2-diylbis[imino(pyridin-2-ylmethanediyl)]}bis(phosphonic%acid)

>  <logK_La_z=3.0_T=25_I=1.0>  (259) 
14.96

$$$$

     RDKit          2D

 42 46  0  0  0  0  0  0  0  0999 V2000
   16.9308   -8.2631    0.0000 C   0  0  0  0  0  0  0  0  0  0  0  0
   17.3418   -6.9982    0.0000 C   0  0  0  0  0  0  0  0  0  0  0  0
   18.0068   -9.0449    0.0000 N   0  0  0  0  0  0  0  0  0  0  0  0
   18.6718   -6.9982    0.0000 C   0  0  0  0  0  0  0  0  0  0  0  0
   19.0828   -8.2631    0.0000 N   0  0  0  0  0  0  0  0  0  0  0  0
   16.8550  -11.0399    0.0000 C   0  0  0  0  0  0  0  0  0  0  0  0
   16.8550  -12.3699    0.0000 C   0  0  0  0  0  0  0  0  0  0  0  0
   15.7032  -10.3749    0.0000 C   0  0  0  0  0  0  0  0  0  0  0  0
   15.7032  -13.0349    0.0000 C   0  0  0  0  0  0  0  0  0  0  0  0
   14.5514  -11.0399    0.0000 C   0  0  0  0  0  0  0  0  0  0  0  0
   14.5514  -12.3699    0.0000 C   0  0  0  0  0  0  0  0  0  0  0  0
   18.0068  -10.3749    0.0000 C   0  0  0  0  0  0  0  0  0  0  0  0
   18.0068  -13.0349    0.0000 C   0  0  0  0  0  0  0  0  0  0  0  0
   13.3996  -13.0349    0.0000 C   0  0  0  0  0  0  0  0  0  0  0  0
   13.3996  -10.3749    0.0000 C   0  0  0  0  0  0  0  0  0  0  0  0
   18.0068  -14.3649    0.0000 N   0  0  0  0  0  0  0  0  0  0  0  0
   19.0828  -15.1466    0.0000 N   0  0  0  0  0  0  0  0  0  0  0  0
   16.9308  -15.1466    0.0000 C   0  0  0  0  0  0  0  0  0  0  0  0
   18.6718  -16.4115    0.0000 C   0  0  0  0  0  0  0  0  0  0  0  0
   17.3418  -16.4115    0.0000 C   0  0  0  0  0  0  0  0  0  0  0  0
   12.7346  -16.4115    0.0000 C   0  0  0  0  0  0  0  0  0  0  0  0
   12.3236  -15.1466    0.0000 N   0  0  0  0  0  0  0  0  0  0  0  0
   14.0646  -16.4115    0.0000 C   0  0  0  0  0  0  0  0  0  0  0  0
   13.3996  -14.3649    0.0000 N   0  0  0  0  0  0  0  0  0  0  0  0
   14.4756  -15.1466    0.0000 C   0  0  0  0  0  0  0  0  0  0  0  0
   12.7346   -6.9982    0.0000 C   0  0  0  0  0  0  0  0  0  0  0  0
   14.0646   -6.9982    0.0000 C   0  0  0  0  0  0  0  0  0  0  0  0
   12.3236   -8.2631    0.0000 N   0  0  0  0  0  0  0  0  0  0  0  0
   14.4756   -8.2631    0.0000 C   0  0  0  0  0  0  0  0  0  0  0  0
   13.3996   -9.0449    0.0000 N   0  0  0  0  0  0  0  0  0  0  0  0
   19.4536   -5.9222    0.0000 C   0  0  0  0  0  0  0  0  0  0  0  0
   20.7763   -6.0612    0.0000 O   0  0  0  0  0  0  0  0  0  0  0  0
   18.9126   -4.7072    0.0000 O   0  0  0  0  0  0  0  0  0  0  0  0
   19.4536  -17.4875    0.0000 C   0  0  0  0  0  0  0  0  0  0  0  0
   18.9126  -18.7025    0.0000 O   0  0  0  0  0  0  0  0  0  0  0  0
   20.7763  -17.3485    0.0000 O   0  0  0  0  0  0  0  0  0  0  0  0
   11.9528  -17.4875    0.0000 C   0  0  0  0  0  0  0  0  0  0  0  0
   10.6301  -17.3485    0.0000 O   0  0  0  0  0  0  0  0  0  0  0  0
   12.4938  -18.7025    0.0000 O   0  0  0  0  0  0  0  0  0  0  0  0
   11.9528   -5.9222    0.0000 C   0  0  0  0  0  0  0  0  0  0  0  0
   12.4938   -4.7072    0.0000 O   0  0  0  0  0  0  0  0  0  0  0  0
   10.6301   -6.0612    0.0000 O   0  0  0  0  0  0  0  0  0  0  0  0
  2  1  2  0
  3  1  1  0
  4  2  1  0
  5  3  1  0
  5  4  2  0
  7  6  1  0
  8  6  2  0
  9  7  2  0
 10  8  1  0
 11  9  1  0
 11 10  2  0
  6 12  1  0
  7 13  1  0
 11 14  1  0
 10 15  1  0
 17 16  1  0
 18 16  1  0
 19 17  2  0
 20 18  2  0
 20 19  1  0
 13 16  1  0
  3 12  1  0
 22 21  2  0
 23 21  1  0
 24 22  1  0
 25 23  2  0
 25 24  1  0
 14 24  1  0
 27 26  1  0
 28 26  2  0
 29 27  2  0
 30 28  1  0
 30 29  1  0
 15 30  1  0
  4 31  1  0
 31 32  2  0
 31 33  1  0
 19 34  1  0
 34 35  1  0
 34 36  2  0
 21 37  1  0
 37 38  1  0
 37 39  2  0
 26 40  1  0
 40 41  1  0
 40 42  2  0
M  END
>  <Name>  (260) 
1&2&4&5-tetrakis(pyrazol-1-ylmethyl-3-carboxylic%acid)-benzene

>  <logK_La_z=3.0_T=25_I=1.0>  (260) 
12.7

$$$$

     RDKit          2D

 22 21  0  0  0  0  0  0  0  0999 V2000
   13.0284  -12.5167    0.0000 C   0  0  0  0  0  0  0  0  0  0  0  0
   14.8376  -11.4713    0.0000 C   0  0  0  0  0  0  0  0  0  0  0  0
   14.8376   -9.3504    0.0000 C   0  0  0  0  0  0  0  0  0  0  0  0
   13.0284   -8.2902    0.0000 C   0  0  0  0  0  0  0  0  0  0  0  0
   16.6756  -12.5167    0.0000 N   0  0  0  0  0  0  0  0  0  0  0  0
   11.1903  -11.4713    0.0000 N   0  0  0  0  0  0  0  0  0  0  0  0
   16.6756  -14.6376    0.0000 C   0  0  0  0  0  0  0  0  0  0  0  0
   18.5133  -15.6979    0.0000 C   0  0  0  0  0  0  0  0  0  0  0  0
   18.3011  -11.1741    0.0000 C   0  0  0  0  0  0  0  0  0  0  0  0
   17.9477   -9.0821    0.0000 C   0  0  0  0  0  0  0  0  0  0  0  0
   11.1903   -9.3504    0.0000 C   0  0  0  0  0  0  0  0  0  0  0  0
    9.3526   -8.2902    0.0000 C   0  0  0  0  0  0  0  0  0  0  0  0
    9.3526  -12.5167    0.0000 C   0  0  0  0  0  0  0  0  0  0  0  0
    9.3526  -14.6376    0.0000 C   0  0  0  0  0  0  0  0  0  0  0  0
   20.3510  -14.6376    0.0000 O   0  0  0  0  0  0  0  0  0  0  0  0
   18.5133  -17.8184    0.0000 O   0  0  0  0  0  0  0  0  0  0  0  0
   15.9544   -8.3468    0.0000 O   0  0  0  0  0  0  0  0  0  0  0  0
   19.5736   -7.7246    0.0000 O   0  0  0  0  0  0  0  0  0  0  0  0
    7.5149   -9.3504    0.0000 O   0  0  0  0  0  0  0  0  0  0  0  0
    9.3526   -6.1697    0.0000 O   0  0  0  0  0  0  0  0  0  0  0  0
   11.1903  -15.6979    0.0000 O   0  0  0  0  0  0  0  0  0  0  0  0
    7.5149  -15.6979    0.0000 O   0  0  0  0  0  0  0  0  0  0  0  0
  1  2  1  0
  2  3  1  0
  3  4  1  0
  2  5  1  0
  1  6  1  0
  5  7  1  0
  7  8  1  0
  5  9  1  0
  9 10  1  0
  6 11  1  0
 11 12  1  0
  6 13  1  0
 13 14  1  0
  8 15  1  0
  8 16  2  0
 10 17  1  0
 10 18  2  0
 12 19  1  0
 12 20  2  0
 14 21  1  0
 14 22  2  0
M  END
>  <Name>  (261) 
1&2-Diaminobutane-N&N&N'&N'-tetraethanoic

>  <logK_La_z=3.0_T=25_I=1.0>  (261) 
16.58

$$$$

     RDKit          2D

  4  3  0  0  0  0  0  0  0  0999 V2000
   17.0569  -13.4166    0.0000 C   0  0  0  0  0  0  0  0  0  0  0  0
   20.4555  -15.3787    0.0000 C   0  0  0  0  0  0  0  0  0  0  0  0
   13.6583  -15.3787    0.0000 N   0  0  0  0  0  0  0  0  0  0  0  0
   23.8541  -13.4166    0.0000 N   0  0  0  0  0  0  0  0  0  0  0  0
  1  2  1  0
  1  3  1  0
  2  4  1  0
M  END
>  <Name>  (262) 
1&2-Diaminoethane

>  <logK_La_z=3.0_T=25_I=1.0>  (262) 
4.88

$$$$

     RDKit          2D

 26 26  0  0  0  0  0  0  0  0999 V2000
   12.7764  -18.0600    0.0000 N   0  0  0  0  0  0  0  0  0  0  0  0
   14.1926  -15.6466    0.0000 C   0  0  0  0  0  0  0  0  0  0  0  0
   12.7764  -13.2333    0.0000 C   0  0  0  0  0  0  0  0  0  0  0  0
   14.1926  -10.8200    0.0000 O   0  0  0  0  0  0  0  0  0  0  0  0
   16.9672  -10.8200    0.0000 C   0  0  0  0  0  0  0  0  0  0  0  0
   18.3400   -8.4066    0.0000 C   0  0  0  0  0  0  0  0  0  0  0  0
   21.1291   -8.4066    0.0000 O   0  0  0  0  0  0  0  0  0  0  0  0
   22.5019  -10.8200    0.0000 C   0  0  0  0  0  0  0  0  0  0  0  0
   25.3199  -10.8200    0.0000 C   0  0  0  0  0  0  0  0  0  0  0  0
   26.6928  -13.2333    0.0000 N   0  0  0  0  0  0  0  0  0  0  0  0
   25.3199  -15.6466    0.0000 C   0  0  0  0  0  0  0  0  0  0  0  0
   26.6928  -18.0600    0.0000 C   0  0  0  0  0  0  0  0  0  0  0  0
   25.3199  -20.4444    0.0000 O   0  0  0  0  0  0  0  0  0  0  0  0
   22.5019  -20.4444    0.0000 C   0  0  0  0  0  0  0  0  0  0  0  0
   21.1291  -22.8577    0.0000 C   0  0  0  0  0  0  0  0  0  0  0  0
   18.3400  -22.8577    0.0000 O   0  0  0  0  0  0  0  0  0  0  0  0
   16.9672  -20.4444    0.0000 C   0  0  0  0  0  0  0  0  0  0  0  0
   14.1926  -20.4444    0.0000 C   0  0  0  0  0  0  0  0  0  0  0  0
   29.3242  -12.3233    0.0000 C   0  0  0  0  0  0  0  0  0  0  0  0
   31.4280  -14.1472    0.0000 C   0  0  0  0  0  0  0  0  0  0  0  0
   10.1466  -18.9747    0.0000 C   0  0  0  0  0  0  0  0  0  0  0  0
    8.0395  -17.1547    0.0000 C   0  0  0  0  0  0  0  0  0  0  0  0
    8.5622  -14.4198    0.0000 O   0  0  0  0  0  0  0  0  0  0  0  0
    5.4097  -18.0694    0.0000 O   0  0  0  0  0  0  0  0  0  0  0  0
   34.0594  -13.2372    0.0000 O   0  0  0  0  0  0  0  0  0  0  0  0
   30.9004  -16.8811    0.0000 O   0  0  0  0  0  0  0  0  0  0  0  0
  1  2  1  0
  2  3  1  0
  3  4  1  0
  4  5  1  0
  5  6  1  0
  6  7  1  0
  7  8  1  0
  8  9  1  0
  9 10  1  0
 10 11  1  0
 11 12  1  0
 12 13  1  0
 13 14  1  0
 14 15  1  0
 15 16  1  0
 16 17  1  0
 17 18  1  0
 18  1  1  0
 10 19  1  0
 19 20  1  0
  1 21  1  0
 21 22  1  0
 22 23  2  0
 22 24  1  0
 20 25  1  0
 20 26  2  0
M  END
>  <Name>  (263) 
1&4&10&13-Tetraoxa-7&16-diazacyclooctadecane-7&16-diethanoic

>  <logK_La_z=3.0_T=25_I=1.0>  (263) 
12.21

$$$$

     RDKit          2D

 23 23  0  0  0  0  0  0  0  0999 V2000
   19.1293  -13.3901    0.0000 C   0  0  0  0  0  0  0  0  0  0  0  0
   20.3947  -12.4080    0.0000 C   0  0  0  0  0  0  0  0  0  0  0  0
   16.7300  -14.0802    0.0000 C   0  0  0  0  0  0  0  0  0  0  0  0
   15.2216  -13.6600    0.0000 C   0  0  0  0  0  0  0  0  0  0  0  0
   17.6254  -10.1886    0.0000 C   0  0  0  0  0  0  0  0  0  0  0  0
   16.7300  -11.4904    0.0000 C   0  0  0  0  0  0  0  0  0  0  0  0
   17.6461  -12.7853    0.0000 N   0  0  0  0  0  0  0  0  0  0  0  0
   12.6801  -12.8266    0.0000 C   0  0  0  0  0  0  0  0  0  0  0  0
   12.6801  -14.4452    0.0000 C   0  0  0  0  0  0  0  0  0  0  0  0
   12.6663  -10.1542    0.0000 C   0  0  0  0  0  0  0  0  0  0  0  0
   11.1372  -10.7052    0.0000 C   0  0  0  0  0  0  0  0  0  0  0  0
   11.1372  -12.3238    0.0000 N   0  0  0  0  0  0  0  0  0  0  0  0
    9.5818  -12.7062    0.0000 C   0  0  0  0  0  0  0  0  0  0  0  0
    8.4729  -11.5503    0.0000 C   0  0  0  0  0  0  0  0  0  0  0  0
   14.2298   -8.0535    0.0000 C   0  0  0  0  0  0  0  0  0  0  0  0
   15.2010   -9.3483    0.0000 C   0  0  0  0  0  0  0  0  0  0  0  0
   12.7007   -8.5700    0.0000 O   0  0  0  0  0  0  0  0  0  0  0  0
   16.7300   -8.9144    0.0000 O   0  0  0  0  0  0  0  0  0  0  0  0
   14.2642  -14.9411    0.0000 O   0  0  0  0  0  0  0  0  0  0  0  0
   20.1768  -10.8211    0.0000 O   0  0  0  0  0  0  0  0  0  0  0  0
   21.8779  -13.0128    0.0000 O   0  0  0  0  0  0  0  0  0  0  0  0
    8.9195  -10.0120    0.0000 O   0  0  0  0  0  0  0  0  0  0  0  0
    6.9174  -11.9327    0.0000 O   0  0  0  0  0  0  0  0  0  0  0  0
  1  2  1  0
  3  4  1  0
  5  6  1  0
  6  7  1  0
  3  7  1  0
  1  7  1  0
  8  9  1  0
 10 11  1  0
 11 12  1  0
  8 12  1  0
 13 14  1  0
 12 13  1  0
 15 16  1  0
 15 17  1  0
 10 17  1  0
 16 18  1  0
  5 18  1  0
  4 19  1  0
  9 19  1  0
  2 20  2  0
  2 21  1  0
 14 22  2  0
 14 23  1  0
M  END
>  <Name>  (264) 
1&4&10-Trioxa-7&13-diazacyclopentadecane-7&13-diethanoic

>  <logK_La_z=3.0_T=25_I=1.0>  (264) 
10.11

$$$$

     RDKit          2D

 42 42  0  0  0  0  0  0  0  0999 V2000
   11.2612  -10.3798    0.0000 N   0  0  0  0  0  0  0  0  0  0  0  0
   12.5564  -10.3890    0.0000 C   0  0  0  0  0  0  0  0  0  0  0  0
   13.1960   -9.2627    0.0000 C   0  0  0  0  0  0  0  0  0  0  0  0
   14.4912   -9.2719    0.0000 N   0  0  0  0  0  0  0  0  0  0  0  0
   15.1334  -10.3841    0.0000 C   0  0  0  0  0  0  0  0  0  0  0  0
   16.4186  -10.3759    0.0000 C   0  0  0  0  0  0  0  0  0  0  0  0
   17.0641  -11.4940    0.0000 N   0  0  0  0  0  0  0  0  0  0  0  0
   16.4144  -12.6029    0.0000 C   0  0  0  0  0  0  0  0  0  0  0  0
   17.0666  -13.7325    0.0000 C   0  0  0  0  0  0  0  0  0  0  0  0
   16.4169  -14.8414    0.0000 N   0  0  0  0  0  0  0  0  0  0  0  0
   15.1317  -14.8496    0.0000 C   0  0  0  0  0  0  0  0  0  0  0  0
   14.4820  -15.9585    0.0000 C   0  0  0  0  0  0  0  0  0  0  0  0
   13.2084  -15.9600    0.0000 N   0  0  0  0  0  0  0  0  0  0  0  0
   12.5562  -14.8304    0.0000 C   0  0  0  0  0  0  0  0  0  0  0  0
   11.2711  -14.8386    0.0000 C   0  0  0  0  0  0  0  0  0  0  0  0
   10.6256  -13.7205    0.0000 N   0  0  0  0  0  0  0  0  0  0  0  0
   11.2753  -12.6116    0.0000 C   0  0  0  0  0  0  0  0  0  0  0  0
   10.6331  -11.4994    0.0000 C   0  0  0  0  0  0  0  0  0  0  0  0
   10.2858   -9.5373    0.0000 C   0  0  0  0  0  0  0  0  0  0  0  0
   10.5278   -8.2714    0.0000 C   0  0  0  0  0  0  0  0  0  0  0  0
   14.7363   -8.0066    0.0000 C   0  0  0  0  0  0  0  0  0  0  0  0
   15.9546   -7.5861    0.0000 C   0  0  0  0  0  0  0  0  0  0  0  0
   18.2816  -11.0714    0.0000 C   0  0  0  0  0  0  0  0  0  0  0  0
   19.2564  -11.9146    0.0000 C   0  0  0  0  0  0  0  0  0  0  0  0
   17.3907  -15.6856    0.0000 C   0  0  0  0  0  0  0  0  0  0  0  0
   17.1464  -16.9511    0.0000 C   0  0  0  0  0  0  0  0  0  0  0  0
   12.9679  -17.2262    0.0000 C   0  0  0  0  0  0  0  0  0  0  0  0
   11.7511  -17.6510    0.0000 C   0  0  0  0  0  0  0  0  0  0  0  0
    9.4071  -14.1404    0.0000 C   0  0  0  0  0  0  0  0  0  0  0  0
    8.4342  -13.2951    0.0000 C   0  0  0  0  0  0  0  0  0  0  0  0
   11.7450   -7.8480    0.0000 O   0  0  0  0  0  0  0  0  0  0  0  0
    9.5524   -7.4290    0.0000 O   0  0  0  0  0  0  0  0  0  0  0  0
   16.9278   -8.4310    0.0000 O   0  0  0  0  0  0  0  0  0  0  0  0
   16.1996   -6.3208    0.0000 O   0  0  0  0  0  0  0  0  0  0  0  0
   20.4740  -11.4921    0.0000 O   0  0  0  0  0  0  0  0  0  0  0  0
   19.0135  -13.1804    0.0000 O   0  0  0  0  0  0  0  0  0  0  0  0
   18.1202  -17.7953    0.0000 O   0  0  0  0  0  0  0  0  0  0  0  0
   15.9284  -17.3723    0.0000 O   0  0  0  0  0  0  0  0  0  0  0  0
   11.5106  -18.9171    0.0000 O   0  0  0  0  0  0  0  0  0  0  0  0
   10.7748  -16.8096    0.0000 O   0  0  0  0  0  0  0  0  0  0  0  0
    7.2157  -13.7150    0.0000 O   0  0  0  0  0  0  0  0  0  0  0  0
    8.6798  -12.0299    0.0000 O   0  0  0  0  0  0  0  0  0  0  0  0
  1  2  1  0
  2  3  1  0
  3  4  1  0
  4  5  1  0
  5  6  1  0
  6  7  1  0
  7  8  1  0
  8  9  1  0
  9 10  1  0
 10 11  1  0
 11 12  1  0
 12 13  1  0
 13 14  1  0
 14 15  1  0
 15 16  1  0
 16 17  1  0
 17 18  1  0
 18  1  1  0
  1 19  1  0
 19 20  1  0
  4 21  1  0
 21 22  1  0
  7 23  1  0
 23 24  1  0
 10 25  1  0
 25 26  1  0
 13 27  1  0
 27 28  1  0
 16 29  1  0
 29 30  1  0
 20 31  2  0
 20 32  1  0
 22 33  2  0
 22 34  1  0
 24 35  1  0
 24 36  2  0
 26 37  1  0
 26 38  2  0
 28 39  1  0
 28 40  2  0
 30 41  1  0
 30 42  2  0
M  END
>  <Name>  (265) 
1&4&7&10&13&16-Hexaazacyclooctadecane-1&4&7&10&13&16-hexaethanoic

>  <logK_La_z=3.0_T=25_I=1.0>  (265) 
19.11

$$$$

     RDKit          2D

 35 35  0  0  0  0  0  0  0  0999 V2000
   12.3262   -6.9462    0.0000 N   0  0  0  0  0  0  0  0  0  0  0  0
   14.2245   -6.0722    0.0000 C   0  0  0  0  0  0  0  0  0  0  0  0
   15.6688   -7.5453    0.0000 C   0  0  0  0  0  0  0  0  0  0  0  0
   17.6051   -6.7142    0.0000 N   0  0  0  0  0  0  0  0  0  0  0  0
   19.0860   -8.3237    0.0000 C   0  0  0  0  0  0  0  0  0  0  0  0
   18.0197  -10.1705    0.0000 C   0  0  0  0  0  0  0  0  0  0  0  0
   19.4489  -11.7606    0.0000 N   0  0  0  0  0  0  0  0  0  0  0  0
   18.3826  -13.6075    0.0000 C   0  0  0  0  0  0  0  0  0  0  0  0
   16.2749  -13.2289    0.0000 C   0  0  0  0  0  0  0  0  0  0  0  0
   15.1920  -15.0137    0.0000 N   0  0  0  0  0  0  0  0  0  0  0  0
   13.1071  -14.5959    0.0000 C   0  0  0  0  0  0  0  0  0  0  0  0
   12.8520  -12.4786    0.0000 C   0  0  0  0  0  0  0  0  0  0  0  0
   10.8214  -11.9664    0.0000 N   0  0  0  0  0  0  0  0  0  0  0  0
   10.6392   -9.9227    0.0000 C   0  0  0  0  0  0  0  0  0  0  0  0
   12.5184   -9.0272    0.0000 C   0  0  0  0  0  0  0  0  0  0  0  0
   11.0323   -5.2791    0.0000 C   0  0  0  0  0  0  0  0  0  0  0  0
    8.9415   -5.5661    0.0000 C   0  0  0  0  0  0  0  0  0  0  0  0
   18.7787   -4.9602    0.0000 C   0  0  0  0  0  0  0  0  0  0  0  0
   20.8845   -5.0996    0.0000 C   0  0  0  0  0  0  0  0  0  0  0  0
   21.4756  -12.3490    0.0000 C   0  0  0  0  0  0  0  0  0  0  0  0
   21.9794  -14.3984    0.0000 C   0  0  0  0  0  0  0  0  0  0  0  0
   15.2453  -17.1235    0.0000 C   0  0  0  0  0  0  0  0  0  0  0  0
   17.0991  -18.1322    0.0000 C   0  0  0  0  0  0  0  0  0  0  0  0
    8.8274  -12.6574    0.0000 C   0  0  0  0  0  0  0  0  0  0  0  0
    7.2320  -11.2760    0.0000 C   0  0  0  0  0  0  0  0  0  0  0  0
   22.0580   -3.3456    0.0000 O   0  0  0  0  0  0  0  0  0  0  0  0
   21.8167   -6.9929    0.0000 O   0  0  0  0  0  0  0  0  0  0  0  0
   24.0060  -14.9868    0.0000 O   0  0  0  0  0  0  0  0  0  0  0  0
   20.4565  -15.8593    0.0000 O   0  0  0  0  0  0  0  0  0  0  0  0
   18.8995  -17.0312    0.0000 O   0  0  0  0  0  0  0  0  0  0  0  0
   17.1523  -20.2419    0.0000 O   0  0  0  0  0  0  0  0  0  0  0  0
    7.6306   -9.2036    0.0000 O   0  0  0  0  0  0  0  0  0  0  0  0
    5.2379  -11.9669    0.0000 O   0  0  0  0  0  0  0  0  0  0  0  0
    7.6476   -3.8989    0.0000 O   0  0  0  0  0  0  0  0  0  0  0  0
    8.1447   -7.5202    0.0000 O   0  0  0  0  0  0  0  0  0  0  0  0
  1  2  1  0
  2  3  1  0
  3  4  1  0
  4  5  1  0
  5  6  1  0
  6  7  1  0
  7  8  1  0
  8  9  1  0
  9 10  1  0
 10 11  1  0
 11 12  1  0
 12 13  1  0
 13 14  1  0
 14 15  1  0
 15  1  1  0
  1 16  1  0
 16 17  1  0
  4 18  1  0
 18 19  1  0
  7 20  1  0
 20 21  1  0
 10 22  1  0
 22 23  1  0
 13 24  1  0
 24 25  1  0
 19 26  1  0
 19 27  2  0
 21 28  1  0
 21 29  2  0
 23 30  1  0
 23 31  2  0
 25 32  1  0
 25 33  2  0
 17 34  1  0
 17 35  2  0
M  END
>  <Name>  (266) 
1&4&7&10&13-Pentaazacyclopentadecane-1&4&7&10&13-pentaethanoic

>  <logK_La_z=3.0_T=25_I=1.0>  (266) 
13.57

$$$$

     RDKit          2D

 14 13  0  0  0  0  0  0  0  0999 V2000
   14.7383   -9.4910    0.0000 N   0  0  0  0  0  0  0  0  0  0  0  0
   16.0604   -9.4950    0.0000 C   0  0  0  0  0  0  0  0  0  0  0  0
   16.7205  -10.6384    0.0000 C   0  0  0  0  0  0  0  0  0  0  0  0
   16.7258   -8.3436    0.0000 C   0  0  0  0  0  0  0  0  0  0  0  0
   16.0612   -7.1923    0.0000 C   0  0  0  0  0  0  0  0  0  0  0  0
   18.0559   -8.3429    0.0000 O   0  0  0  0  0  0  0  0  0  0  0  0
   16.0674  -11.7931    0.0000 C   0  0  0  0  0  0  0  0  0  0  0  0
   18.0505  -10.6380    0.0000 O   0  0  0  0  0  0  0  0  0  0  0  0
   14.0807  -10.6380    0.0000 C   0  0  0  0  0  0  0  0  0  0  0  0
   12.7552  -10.6462    0.0000 C   0  0  0  0  0  0  0  0  0  0  0  0
   14.7453  -11.7890    0.0000 C   0  0  0  0  0  0  0  0  0  0  0  0
   14.0799  -12.9406    0.0000 C   0  0  0  0  0  0  0  0  0  0  0  0
   12.0906   -9.4950    0.0000 C   0  0  0  0  0  0  0  0  0  0  0  0
   12.0852  -11.7901    0.0000 O   0  0  0  0  0  0  0  0  0  0  0  0
  1  2  1  0
  2  3  1  0
  2  4  1  0
  4  5  1  0
  4  6  2  0
  3  7  1  0
  3  8  2  0
  1  9  1  0
  9 10  1  0
  9 11  1  0
 11 12  1  0
 10 13  1  0
 10 14  2  0
M  END
>  <Name>  (267) 
1-carboxypropylaminomalonic

>  <logK_La_z=3.0_T=25_I=1.0>  (267) 
7.5

$$$$

     RDKit          2D

 17 18  0  0  0  0  0  0  0  0999 V2000
   13.0987   -8.3125    0.0000 C   0  0  0  0  0  0  0  0  0  0  0  0
   13.0987   -9.6425    0.0000 C   0  0  0  0  0  0  0  0  0  0  0  0
   11.9469   -7.6475    0.0000 C   0  0  0  0  0  0  0  0  0  0  0  0
   11.9469  -10.3074    0.0000 C   0  0  0  0  0  0  0  0  0  0  0  0
   10.7951   -8.3125    0.0000 C   0  0  0  0  0  0  0  0  0  0  0  0
   10.7951   -9.6425    0.0000 C   0  0  0  0  0  0  0  0  0  0  0  0
   14.2505   -7.6475    0.0000 C   0  0  0  0  0  0  0  0  0  0  0  0
   15.4023   -8.3125    0.0000 C   0  0  0  0  0  0  0  0  0  0  0  0
   14.2505  -10.3074    0.0000 C   0  0  0  0  0  0  0  0  0  0  0  0
   15.4023   -9.6425    0.0000 C   0  0  0  0  0  0  0  0  0  0  0  0
   14.2505   -6.3175    0.0000 N   0  0  0  0  0  0  0  0  0  0  0  0
    9.6434   -7.6475    0.0000 S   0  0  0  0  0  0  0  0  0  0  0  0
   10.3083   -6.4957    0.0000 O   0  0  0  0  0  0  0  0  0  0  0  0
    8.9784   -8.7993    0.0000 O   0  0  0  0  0  0  0  0  0  0  0  0
    8.4916   -6.9825    0.0000 O   0  0  0  0  0  0  0  0  0  0  0  0
   15.4023   -5.6526    0.0000 O   0  0  0  0  0  0  0  0  0  0  0  0
   16.5541   -7.6475    0.0000 O   0  0  0  0  0  0  0  0  0  0  0  0
  3  1  2  0
  4  2  2  0
  5  3  1  0
  6  4  1  0
  6  5  2  0
  7  1  1  0
  2  1  1  0
  8  7  2  0
  9  2  1  0
 10  8  1  0
 10  9  2  0
  7 11  1  0
  5 12  1  0
 12 13  2  0
 12 14  2  0
 12 15  1  0
 11 16  2  0
  8 17  1  0
M  END
>  <Name>  (268) 
1-Nitroso-2-naphthol-7-sulfonic

>  <logK_La_z=3.0_T=25_I=1.0>  (268) 
3.75

$$$$

     RDKit          2D

 23 22  0  0  0  0  0  0  0  0999 V2000
   13.8170  -13.6117    0.0000 N   0  0  0  0  0  0  0  0  0  0  0  0
   15.5555  -12.1355    0.0000 C   0  0  0  0  0  0  0  0  0  0  0  0
   17.6795  -12.9040    0.0000 C   0  0  0  0  0  0  0  0  0  0  0  0
   19.4259  -11.4413    0.0000 N   0  0  0  0  0  0  0  0  0  0  0  0
   19.0134   -9.2112    0.0000 C   0  0  0  0  0  0  0  0  0  0  0  0
   20.7593   -7.7478    0.0000 C   0  0  0  0  0  0  0  0  0  0  0  0
   21.5499  -12.2097    0.0000 C   0  0  0  0  0  0  0  0  0  0  0  0
   21.9626  -14.4402    0.0000 C   0  0  0  0  0  0  0  0  0  0  0  0
   14.6029  -15.7308    0.0000 C   0  0  0  0  0  0  0  0  0  0  0  0
   16.8405  -16.1192    0.0000 C   0  0  0  0  0  0  0  0  0  0  0  0
   11.6850  -12.8293    0.0000 C   0  0  0  0  0  0  0  0  0  0  0  0
    9.9466  -14.3059    0.0000 C   0  0  0  0  0  0  0  0  0  0  0  0
   18.2841  -14.3758    0.0000 O   0  0  0  0  0  0  0  0  0  0  0  0
   17.6211  -18.2593    0.0000 O   0  0  0  0  0  0  0  0  0  0  0  0
   10.3456  -16.5438    0.0000 O   0  0  0  0  0  0  0  0  0  0  0  0
    7.8011  -13.5314    0.0000 O   0  0  0  0  0  0  0  0  0  0  0  0
   22.8972   -8.5092    0.0000 O   0  0  0  0  0  0  0  0  0  0  0  0
   20.3527   -5.4968    0.0000 O   0  0  0  0  0  0  0  0  0  0  0  0
   20.2165  -15.9033    0.0000 O   0  0  0  0  0  0  0  0  0  0  0  0
   24.0868  -15.2091    0.0000 O   0  0  0  0  0  0  0  0  0  0  0  0
   15.1428   -9.9051    0.0000 C   0  0  0  0  0  0  0  0  0  0  0  0
   16.8889   -8.4420    0.0000 O   0  0  0  0  0  0  0  0  0  0  0  0
   13.0186   -9.1362    0.0000 O   0  0  0  0  0  0  0  0  0  0  0  0
  1  2  1  0
  2  3  1  0
  3  4  1  0
  4  5  1  0
  5  6  1  0
  4  7  1  0
  7  8  1  0
  1  9  1  0
  9 10  1  0
  1 11  1  0
 11 12  1  0
 10 13  1  0
 10 14  2  0
 12 15  2  0
 12 16  1  0
  6 17  2  0
  6 18  1  0
  8 19  1  0
  8 20  2  0
  2 21  1  0
 21 22  1  0
 21 23  2  0
M  END
>  <Name>  (269) 
2&3-Diaminopropanoic-N&N&N'&N'-tetraacetic

>  <logK_La_z=3.0_T=25_I=1.0>  (269) 
14.3

$$$$

     RDKit          2D

 21 20  0  0  0  0  0  0  0  0999 V2000
   13.4898   -9.1030    0.0000 N   0  0  0  0  0  0  0  0  0  0  0  0
   15.3755  -10.2080    0.0000 C   0  0  0  0  0  0  0  0  0  0  0  0
   17.2740   -9.1119    0.0000 C   0  0  0  0  0  0  0  0  0  0  0  0
   19.1580  -10.1835    0.0000 N   0  0  0  0  0  0  0  0  0  0  0  0
   17.2731   -6.9187    0.0000 C   0  0  0  0  0  0  0  0  0  0  0  0
   11.5913  -10.1991    0.0000 C   0  0  0  0  0  0  0  0  0  0  0  0
   11.5922  -12.3923    0.0000 C   0  0  0  0  0  0  0  0  0  0  0  0
    9.6926   -9.1020    0.0000 C   0  0  0  0  0  0  0  0  0  0  0  0
   19.1589  -12.3767    0.0000 C   0  0  0  0  0  0  0  0  0  0  0  0
   17.2604  -13.4728    0.0000 C   0  0  0  0  0  0  0  0  0  0  0  0
   21.0577  -13.4738    0.0000 C   0  0  0  0  0  0  0  0  0  0  0  0
   15.3747  -12.3678    0.0000 O   0  0  0  0  0  0  0  0  0  0  0  0
   17.2744  -15.6580    0.0000 O   0  0  0  0  0  0  0  0  0  0  0  0
   21.0584  -15.6667    0.0000 O   0  0  0  0  0  0  0  0  0  0  0  0
   22.9558  -12.3779    0.0000 O   0  0  0  0  0  0  0  0  0  0  0  0
   19.1712   -5.8228    0.0000 O   0  0  0  0  0  0  0  0  0  0  0  0
   15.3743   -5.8217    0.0000 O   0  0  0  0  0  0  0  0  0  0  0  0
   13.4763  -13.4638    0.0000 O   0  0  0  0  0  0  0  0  0  0  0  0
    9.6941  -13.4882    0.0000 O   0  0  0  0  0  0  0  0  0  0  0  0
    9.6919   -6.9091    0.0000 O   0  0  0  0  0  0  0  0  0  0  0  0
    7.7944  -10.1979    0.0000 O   0  0  0  0  0  0  0  0  0  0  0  0
  1  2  1  0
  2  3  1  0
  3  4  1  0
  3  5  1  0
  1  6  1  0
  6  7  1  0
  6  8  1  0
  4  9  1  0
  9 10  1  0
  9 11  1  0
 10 12  1  0
 10 13  2  0
 11 14  1  0
 11 15  2  0
  5 16  2  0
  5 17  1  0
  7 18  2  0
  7 19  1  0
  8 20  2  0
  8 21  1  0
M  END
>  <Name>  (270) 
2&3-Diaminopropanoic-N&N'-dimalonic

>  <logK_La_z=3.0_T=25_I=1.0>  (270) 
12.05

$$$$

     RDKit          2D

 16 17  0  0  0  0  0  0  0  0999 V2000
   19.6327   -9.1507    0.0000 C   0  0  0  0  0  0  0  0  0  0  0  0
   19.6327  -10.4807    0.0000 C   0  0  0  0  0  0  0  0  0  0  0  0
   18.4809   -8.4858    0.0000 C   0  0  0  0  0  0  0  0  0  0  0  0
   18.4809  -11.1457    0.0000 C   0  0  0  0  0  0  0  0  0  0  0  0
   17.3291   -9.1507    0.0000 C   0  0  0  0  0  0  0  0  0  0  0  0
   17.3291  -10.4807    0.0000 C   0  0  0  0  0  0  0  0  0  0  0  0
   16.1773   -8.4858    0.0000 C   0  0  0  0  0  0  0  0  0  0  0  0
   15.0255   -9.1507    0.0000 C   0  0  0  0  0  0  0  0  0  0  0  0
   16.1773  -11.1457    0.0000 C   0  0  0  0  0  0  0  0  0  0  0  0
   15.0255  -10.4807    0.0000 C   0  0  0  0  0  0  0  0  0  0  0  0
   20.7845   -8.4858    0.0000 O   0  0  0  0  0  0  0  0  0  0  0  0
   20.7845  -11.1457    0.0000 O   0  0  0  0  0  0  0  0  0  0  0  0
   13.8737  -11.1457    0.0000 S   0  0  0  0  0  0  0  0  0  0  0  0
   13.2087   -9.9939    0.0000 O   0  0  0  0  0  0  0  0  0  0  0  0
   14.5387  -12.2975    0.0000 O   0  0  0  0  0  0  0  0  0  0  0  0
   12.7219  -11.8107    0.0000 O   0  0  0  0  0  0  0  0  0  0  0  0
  2  1  2  0
  3  1  1  0
  4  2  1  0
  5  3  2  0
  6  4  2  0
  7  5  1  0
  6  5  1  0
  8  7  2  0
  9  6  1  0
 10  8  1  0
 10  9  2  0
  1 11  1  0
  2 12  1  0
 10 13  1  0
 13 14  2  0
 13 15  1  0
 13 16  2  0
M  END
>  <Name>  (271) 
2&3-Dihydroxynaphthalene-6-sulfonic

>  <logK_La_z=3.0_T=25_I=1.0>  (271) 
9.87

$$$$

     RDKit          2D

 32 36  0  0  1  0  0  0  0  0999 V2000
   14.4476   -7.5803    0.0000 C   0  0  0  0  0  0  0  0  0  0  0  0
   14.4518   -8.9029    0.0000 C   0  0  0  0  0  0  0  0  0  0  0  0
   13.3046   -6.9203    0.0000 C   0  0  0  0  0  0  0  0  0  0  0  0
   13.3047   -9.5599    0.0000 N   0  0  0  0  0  0  0  0  0  0  0  0
   12.1574   -7.5782    0.0000 C   0  0  0  0  0  0  0  0  0  0  0  0
   12.1616   -8.8999    0.0000 C   0  0  0  0  0  0  0  0  0  0  0  0
   15.6028   -9.5674    0.0000 C   0  0  0  0  0  0  0  0  0  0  0  0
   16.8144   -9.0285    0.0000 N   0  0  0  0  0  0  0  0  0  0  0  0
   15.7423  -10.8855    0.0000 N   0  0  0  0  0  0  0  0  0  0  0  0
   17.7007  -10.0108    0.0000 C   0  0  0  0  0  0  0  0  0  0  0  0
   17.0359  -11.1622    0.0000 C   0  0  0  0  0  0  0  0  0  0  0  0
   11.0101   -9.5654    0.0000 C   0  0  0  0  0  0  0  0  0  0  0  0
   10.8711  -10.8871    0.0000 N   0  0  0  0  0  0  0  0  0  0  0  0
    9.7878   -9.0236    0.0000 N   0  0  0  0  0  0  0  0  0  0  0  0
    9.5639  -11.1660    0.0000 C   0  0  0  0  0  0  0  0  0  0  0  0
    8.8986  -10.0142    0.0000 C   0  0  0  0  0  0  0  0  0  0  0  0
   19.0306  -10.0114    0.0000 C   0  0  0  0  0  0  0  0  0  0  0  0
   19.6961  -11.1629    0.0000 C   0  0  0  0  0  0  0  0  0  0  0  0
   17.7060  -12.3058    0.0000 C   0  0  0  0  0  0  0  0  0  0  0  0
   19.0314  -12.3142    0.0000 C   0  0  0  0  0  0  0  0  0  0  0  0
    8.8993  -12.3170    0.0000 C   0  0  0  0  0  0  0  0  0  0  0  0
    7.5692  -12.3168    0.0000 C   0  0  0  0  0  0  0  0  0  0  0  0
    7.5684  -10.0140    0.0000 C   0  0  0  0  0  0  0  0  0  0  0  0
    6.9039  -11.1649    0.0000 C   0  0  0  0  0  0  0  0  0  0  0  0
    9.5168   -7.7210    0.0000 C   0  0  0  0  0  0  0  0  0  0  0  0
   17.0874   -7.7230    0.0000 C   0  0  0  0  0  0  0  0  0  0  0  0
   16.1041   -6.8380    0.0000 C   0  0  0  0  0  0  0  0  0  0  0  0
   10.4943   -6.8430    0.0000 C   0  0  0  0  0  0  0  0  0  0  0  0
    8.2467   -7.3152    0.0000 C   0  0  0  0  0  0  0  0  0  0  0  0
    7.9708   -6.0202    0.0000 C   0  0  0  0  0  0  0  0  0  0  0  0
   18.3545   -7.3186    0.0000 C   0  0  0  0  0  0  0  0  0  0  0  0
   18.6273   -6.0126    0.0000 C   0  0  0  0  0  0  0  0  0  0  0  0
  2  1  2  0
  3  1  1  0
  4  2  1  0
  5  3  2  0
  6  4  2  0
  6  5  1  0
  8  7  1  0
  9  7  2  0
 10  8  1  0
 11  9  1  0
  2  7  1  0
 13 12  2  0
 14 12  1  0
 15 13  1  0
 16 14  1  0
  6 12  1  0
 17 10  2  0
 11 10  1  0
 18 17  1  0
 19 11  2  0
 20 18  2  0
 20 19  1  0
 21 15  2  0
 16 15  1  0
 22 21  1  0
 23 16  2  0
 24 22  2  0
 24 23  1  0
 14 25  1  0
  8 26  1  0
 26 27  1  6
 25 28  1  6
 25 29  1  0
 29 30  1  0
 26 31  1  0
 31 32  1  0
M  END
>  <Name>  (272) 
2&6-bis(1-S-neopentylbenzimidazol-2-yl)pyridine

>  <logK_La_z=3.0_T=25_I=1.0>  (272) 
7.9

$$$$

     RDKit          2D

 36 38  0  0  0  0  0  0  0  0999 V2000
   16.3469  -13.0840    0.0000 C   0  0  0  0  0  0  0  0  0  0  0  0
   16.3469  -14.4140    0.0000 C   0  0  0  0  0  0  0  0  0  0  0  0
   15.1951  -12.4190    0.0000 N   0  0  0  0  0  0  0  0  0  0  0  0
   15.1951  -15.0790    0.0000 C   0  0  0  0  0  0  0  0  0  0  0  0
   14.0433  -13.0840    0.0000 C   0  0  0  0  0  0  0  0  0  0  0  0
   14.0433  -14.4140    0.0000 C   0  0  0  0  0  0  0  0  0  0  0  0
   17.4987  -12.4190    0.0000 N   0  0  0  0  0  0  0  0  0  0  0  0
   17.6377  -11.0963    0.0000 N   0  0  0  0  0  0  0  0  0  0  0  0
   18.7137  -12.9600    0.0000 C   0  0  0  0  0  0  0  0  0  0  0  0
   18.9387  -10.8198    0.0000 C   0  0  0  0  0  0  0  0  0  0  0  0
   19.6037  -11.9716    0.0000 C   0  0  0  0  0  0  0  0  0  0  0  0
   12.8914  -12.4190    0.0000 N   0  0  0  0  0  0  0  0  0  0  0  0
   11.6764  -12.9600    0.0000 C   0  0  0  0  0  0  0  0  0  0  0  0
   12.7524  -11.0963    0.0000 N   0  0  0  0  0  0  0  0  0  0  0  0
   10.7865  -11.9716    0.0000 C   0  0  0  0  0  0  0  0  0  0  0  0
   11.4515  -10.8198    0.0000 C   0  0  0  0  0  0  0  0  0  0  0  0
   19.4796   -9.6048    0.0000 C   0  0  0  0  0  0  0  0  0  0  0  0
   20.8023   -9.4657    0.0000 N   0  0  0  0  0  0  0  0  0  0  0  0
   21.3433   -8.2507    0.0000 C   0  0  0  0  0  0  0  0  0  0  0  0
   21.5841  -10.5417    0.0000 C   0  0  0  0  0  0  0  0  0  0  0  0
   20.5615   -7.1747    0.0000 C   0  0  0  0  0  0  0  0  0  0  0  0
   21.1025   -5.9597    0.0000 C   0  0  0  0  0  0  0  0  0  0  0  0
   19.2388   -7.3137    0.0000 O   0  0  0  0  0  0  0  0  0  0  0  0
   22.9068  -10.4027    0.0000 C   0  0  0  0  0  0  0  0  0  0  0  0
   23.6886  -11.4787    0.0000 C   0  0  0  0  0  0  0  0  0  0  0  0
   23.4478   -9.1877    0.0000 O   0  0  0  0  0  0  0  0  0  0  0  0
   10.9105   -9.6048    0.0000 C   0  0  0  0  0  0  0  0  0  0  0  0
    9.5878   -9.4657    0.0000 N   0  0  0  0  0  0  0  0  0  0  0  0
    9.0468   -8.2507    0.0000 C   0  0  0  0  0  0  0  0  0  0  0  0
    8.8061  -10.5417    0.0000 C   0  0  0  0  0  0  0  0  0  0  0  0
    9.8286   -7.1747    0.0000 C   0  0  0  0  0  0  0  0  0  0  0  0
    9.2876   -5.9597    0.0000 C   0  0  0  0  0  0  0  0  0  0  0  0
   11.1513   -7.3137    0.0000 O   0  0  0  0  0  0  0  0  0  0  0  0
    7.4833  -10.4027    0.0000 C   0  0  0  0  0  0  0  0  0  0  0  0
    6.7016  -11.4787    0.0000 C   0  0  0  0  0  0  0  0  0  0  0  0
    6.9424   -9.1877    0.0000 O   0  0  0  0  0  0  0  0  0  0  0  0
  2  1  2  0
  3  1  1  0
  4  2  1  0
  5  3  2  0
  6  4  2  0
  6  5  1  0
  8  7  1  0
  9  7  1  0
 10  8  2  0
 11  9  2  0
 11 10  1  0
  1  7  1  0
 13 12  1  0
 14 12  1  0
 15 13  2  0
 16 14  2  0
 16 15  1  0
  5 12  1  0
 10 17  1  0
 17 18  1  0
 18 19  1  0
 18 20  1  0
 19 21  1  0
 21 22  1  0
 21 23  2  0
 20 24  1  0
 24 25  1  0
 24 26  2  0
 16 27  1  0
 27 28  1  0
 28 29  1  0
 28 30  1  0
 29 31  1  0
 31 32  1  0
 31 33  2  0
 30 34  1  0
 34 35  1  0
 34 36  2  0
M  END
>  <Name>  (273) 
2&6-bis{3-[N&N-bis(carboxymethyl)aminomethyl]pyrazol-1-yl}-pyridine

>  <logK_La_z=3.0_T=25_I=1.0>  (273) 
14.56

$$$$

     RDKit          2D

 16 16  0  0  0  0  0  0  0  0999 V2000
   13.2786   -9.8318    0.0000 C   0  0  0  0  0  0  0  0  0  0  0  0
   12.6082  -10.9779    0.0000 C   0  0  0  0  0  0  0  0  0  0  0  0
   12.6000   -8.6563    0.0000 C   0  0  0  0  0  0  0  0  0  0  0  0
   11.2875  -10.9960    0.0000 C   0  0  0  0  0  0  0  0  0  0  0  0
   11.2222   -8.6875    0.0000 N   0  0  0  0  0  0  0  0  0  0  0  0
   10.5679   -9.8580    0.0000 C   0  0  0  0  0  0  0  0  0  0  0  0
   13.2811   -7.5139    0.0000 C   0  0  0  0  0  0  0  0  0  0  0  0
    9.2775  -10.1805    0.0000 C   0  0  0  0  0  0  0  0  0  0  0  0
   10.5422   -7.5798    0.0000 C   0  0  0  0  0  0  0  0  0  0  0  0
    9.3239   -7.1815    0.0000 C   0  0  0  0  0  0  0  0  0  0  0  0
   14.6227   -7.5427    0.0000 O   0  0  0  0  0  0  0  0  0  0  0  0
   12.6683   -6.3242    0.0000 O   0  0  0  0  0  0  0  0  0  0  0  0
    9.0292  -11.5296    0.0000 O   0  0  0  0  0  0  0  0  0  0  0  0
    8.1456   -9.5210    0.0000 O   0  0  0  0  0  0  0  0  0  0  0  0
    9.2944   -5.7964    0.0000 O   0  0  0  0  0  0  0  0  0  0  0  0
    8.0674   -7.5970    0.0000 O   0  0  0  0  0  0  0  0  0  0  0  0
  2  1  1  0
  3  1  1  0
  4  2  1  0
  5  3  1  0
  6  4  1  0
  6  5  1  0
  3  7  1  0
  6  8  1  0
  5  9  1  0
  9 10  1  0
  7 11  2  0
  7 12  1  0
  8 13  2  0
  8 14  1  0
 10 15  2  0
 10 16  1  0
M  END
>  <Name>  (274) 
2&6-Dicarboxypiperidyl-N-ethanoic

>  <logK_La_z=3.0_T=25_I=1.0>  (274) 
9.17

$$$$

     RDKit          2D

 10  9  0  0  0  0  0  0  0  0999 V2000
   12.7960  -10.1904    0.0000 C   0  0  0  0  0  0  0  0  0  0  0  0
   14.1409  -10.1904    0.0000 C   0  0  0  0  0  0  0  0  0  0  0  0
   12.0216   -9.1194    0.0000 C   0  0  0  0  0  0  0  0  0  0  0  0
   12.0737  -11.3000    0.0000 C   0  0  0  0  0  0  0  0  0  0  0  0
   14.0087   -8.8960    0.0000 C   0  0  0  0  0  0  0  0  0  0  0  0
   14.8369   -7.9288    0.0000 C   0  0  0  0  0  0  0  0  0  0  0  0
   15.4701  -10.2727    0.0000 C   0  0  0  0  0  0  0  0  0  0  0  0
   14.0815  -11.5278    0.0000 O   0  0  0  0  0  0  0  0  0  0  0  0
   16.1061  -11.4408    0.0000 O   0  0  0  0  0  0  0  0  0  0  0  0
   16.3275   -9.2779    0.0000 O   0  0  0  0  0  0  0  0  0  0  0  0
  1  2  1  0
  1  3  1  0
  1  4  1  0
  2  5  1  0
  5  6  1  0
  2  7  1  0
  2  8  1  0
  7  9  2  0
  7 10  1  0
M  END
>  <Name>  (275) 
2-Ethyl-2-hydroxy-3-methylbutanoic

>  <logK_La_z=3.0_T=25_I=1.0>  (275) 
1.75

$$$$

     RDKit          2D

 19 18  0  0  0  0  0  0  0  0999 V2000
   15.6797  -10.1296    0.0000 N   0  0  0  0  0  0  0  0  0  0  0  0
   16.3447   -8.9778    0.0000 C   0  0  0  0  0  0  0  0  0  0  0  0
   17.6747   -8.9778    0.0000 C   0  0  0  0  0  0  0  0  0  0  0  0
   18.3397   -7.8260    0.0000 C   0  0  0  0  0  0  0  0  0  0  0  0
   18.3397  -10.1296    0.0000 O   0  0  0  0  0  0  0  0  0  0  0  0
   16.3447  -11.2815    0.0000 C   0  0  0  0  0  0  0  0  0  0  0  0
   15.6797  -12.4333    0.0000 C   0  0  0  0  0  0  0  0  0  0  0  0
   16.3447  -13.5851    0.0000 C   0  0  0  0  0  0  0  0  0  0  0  0
   14.3497  -12.4333    0.0000 O   0  0  0  0  0  0  0  0  0  0  0  0
   14.3497  -10.1296    0.0000 C   0  0  0  0  0  0  0  0  0  0  0  0
   13.6847   -8.9778    0.0000 C   0  0  0  0  0  0  0  0  0  0  0  0
   13.6847  -11.2815    0.0000 C   0  0  0  0  0  0  0  0  0  0  0  0
   14.3497   -7.8260    0.0000 O   0  0  0  0  0  0  0  0  0  0  0  0
   12.3547   -8.9778    0.0000 C   0  0  0  0  0  0  0  0  0  0  0  0
   12.3547  -11.2815    0.0000 C   0  0  0  0  0  0  0  0  0  0  0  0
   11.6897  -12.4333    0.0000 C   0  0  0  0  0  0  0  0  0  0  0  0
   10.3597  -12.4333    0.0000 C   0  0  0  0  0  0  0  0  0  0  0  0
    9.6947  -13.5851    0.0000 C   0  0  0  0  0  0  0  0  0  0  0  0
    8.3647  -13.5851    0.0000 C   0  0  0  0  0  0  0  0  0  0  0  0
  1  2  1  0
  2  3  1  0
  3  4  1  0
  3  5  2  0
  1  6  1  0
  6  7  1  0
  7  8  1  0
  7  9  2  0
  1 10  1  0
 10 11  1  0
 10 12  1  0
 11 13  2  0
 11 14  1  0
 12 15  1  0
 15 16  1  0
 16 17  1  0
 17 18  1  0
 18 19  1  0
M  END
>  <Name>  (276) 
2-Hexylnitrilotriacetic

>  <logK_La_z=3.0_T=25_I=1.0>  (276) 
9.84

$$$$

     RDKit          2D

 14 14  0  0  0  0  0  0  0  0999 V2000
   16.4718   -8.2734    0.0000 C   0  0  0  0  0  0  0  0  0  0  0  0
   16.4718   -9.6034    0.0000 C   0  0  0  0  0  0  0  0  0  0  0  0
   15.3200   -7.6084    0.0000 C   0  0  0  0  0  0  0  0  0  0  0  0
   15.3200  -10.2684    0.0000 C   0  0  0  0  0  0  0  0  0  0  0  0
   14.1682   -8.2734    0.0000 C   0  0  0  0  0  0  0  0  0  0  0  0
   14.1682   -9.6034    0.0000 C   0  0  0  0  0  0  0  0  0  0  0  0
   15.3200   -6.2784    0.0000 C   0  0  0  0  0  0  0  0  0  0  0  0
   17.6236  -10.2684    0.0000 S   0  0  0  0  0  0  0  0  0  0  0  0
   16.4718   -5.6134    0.0000 O   0  0  0  0  0  0  0  0  0  0  0  0
   14.1682   -5.6134    0.0000 O   0  0  0  0  0  0  0  0  0  0  0  0
   13.0164   -7.6084    0.0000 O   0  0  0  0  0  0  0  0  0  0  0  0
   18.2886   -9.1166    0.0000 O   0  0  0  0  0  0  0  0  0  0  0  0
   16.9586  -11.4202    0.0000 O   0  0  0  0  0  0  0  0  0  0  0  0
   18.7754  -10.9334    0.0000 O   0  0  0  0  0  0  0  0  0  0  0  0
  2  1  2  0
  3  1  1  0
  4  2  1  0
  5  3  2  0
  6  4  2  0
  6  5  1  0
  3  7  1  0
  2  8  1  0
  7  9  2  0
  7 10  1  0
  5 11  1  0
  8 12  2  0
  8 13  2  0
  8 14  1  0
M  END
>  <Name>  (277) 
2-Hydroxy-5-sulfobenzoic

>  <logK_La_z=3.0_T=25_I=1.0>  (277) 
7.24

$$$$

     RDKit          2D

  4  3  0  0  0  0  0  0  0  0999 V2000
   12.3560   -9.8079    0.0000 C   0  0  0  0  0  0  0  0  0  0  0  0
   15.3497  -11.5362    0.0000 C   0  0  0  0  0  0  0  0  0  0  0  0
   18.3433   -9.8079    0.0000 S   0  0  0  0  0  0  0  0  0  0  0  0
    9.3623  -11.5362    0.0000 O   0  0  0  0  0  0  0  0  0  0  0  0
  1  2  1  0
  2  3  1  0
  1  4  1  0
M  END
>  <Name>  (278) 
2-Mercaptoethanol

>  <logK_La_z=3.0_T=25_I=1.0>  (278) 
5.02

$$$$

     RDKit          2D

 17 18  0  0  0  0  0  0  0  0999 V2000
   12.4797   -7.9349    0.0000 C   0  0  0  0  0  0  0  0  0  0  0  0
   13.1447   -9.0868    0.0000 C   0  0  0  0  0  0  0  0  0  0  0  0
   11.1497   -7.9349    0.0000 C   0  0  0  0  0  0  0  0  0  0  0  0
   12.4797  -10.2386    0.0000 C   0  0  0  0  0  0  0  0  0  0  0  0
   10.4847   -9.0868    0.0000 C   0  0  0  0  0  0  0  0  0  0  0  0
   11.1497  -10.2386    0.0000 C   0  0  0  0  0  0  0  0  0  0  0  0
   14.4747   -9.0868    0.0000 C   0  0  0  0  0  0  0  0  0  0  0  0
   15.1397  -10.2386    0.0000 C   0  0  0  0  0  0  0  0  0  0  0  0
   13.1447  -11.3904    0.0000 C   0  0  0  0  0  0  0  0  0  0  0  0
   14.4747  -11.3904    0.0000 C   0  0  0  0  0  0  0  0  0  0  0  0
   15.1397   -7.9349    0.0000 S   0  0  0  0  0  0  0  0  0  0  0  0
   10.4847   -6.7831    0.0000 N   0  0  0  0  0  0  0  0  0  0  0  0
   16.2915   -8.5999    0.0000 O   0  0  0  0  0  0  0  0  0  0  0  0
   13.9879   -7.2699    0.0000 O   0  0  0  0  0  0  0  0  0  0  0  0
   15.8047   -6.7831    0.0000 O   0  0  0  0  0  0  0  0  0  0  0  0
    9.1547   -6.7831    0.0000 O   0  0  0  0  0  0  0  0  0  0  0  0
   13.1447   -6.7831    0.0000 O   0  0  0  0  0  0  0  0  0  0  0  0
  2  1  2  0
  3  1  1  0
  5  3  2  0
  6  4  2  0
  6  5  1  0
  7  2  1  0
  4  2  1  0
  8  7  2  0
  9  4  1  0
 10  8  1  0
 10  9  2  0
  7 11  1  0
  3 12  1  0
 11 13  2  0
 11 14  2  0
 11 15  1  0
 12 16  2  0
  1 17  1  0
M  END
>  <Name>  (279) 
2-Nitroso-1-hydroxynaphthalene-8-sulfonic

>  <logK_La_z=3.0_T=25_I=1.0>  (279) 
4.7

$$$$

     RDKit          2D

 16 16  0  0  0  0  0  0  0  0999 V2000
   13.6186  -10.0752    0.0000 C   0  0  0  0  0  0  0  0  0  0  0  0
   13.6186  -11.4052    0.0000 C   0  0  0  0  0  0  0  0  0  0  0  0
   12.4667   -9.4102    0.0000 C   0  0  0  0  0  0  0  0  0  0  0  0
   12.4667  -12.0702    0.0000 C   0  0  0  0  0  0  0  0  0  0  0  0
   11.3149  -10.0752    0.0000 C   0  0  0  0  0  0  0  0  0  0  0  0
   11.3149  -11.4052    0.0000 C   0  0  0  0  0  0  0  0  0  0  0  0
   12.4667  -13.4002    0.0000 C   0  0  0  0  0  0  0  0  0  0  0  0
   14.7704   -9.4102    0.0000 N   0  0  0  0  0  0  0  0  0  0  0  0
   10.1631   -9.4102    0.0000 N   0  0  0  0  0  0  0  0  0  0  0  0
   14.7704   -8.0802    0.0000 O   0  0  0  0  0  0  0  0  0  0  0  0
   15.9222  -10.0752    0.0000 O   0  0  0  0  0  0  0  0  0  0  0  0
   10.1631   -8.0802    0.0000 O   0  0  0  0  0  0  0  0  0  0  0  0
    9.0113  -10.0752    0.0000 O   0  0  0  0  0  0  0  0  0  0  0  0
   13.6186  -14.0652    0.0000 O   0  0  0  0  0  0  0  0  0  0  0  0
   11.3149  -14.0652    0.0000 O   0  0  0  0  0  0  0  0  0  0  0  0
   14.7704  -12.0702    0.0000 O   0  0  0  0  0  0  0  0  0  0  0  0
  2  1  2  0
  3  1  1  0
  4  2  1  0
  5  3  2  0
  6  4  2  0
  6  5  1  0
  4  7  1  0
  1  8  1  0
  5  9  1  0
  8 10  1  0
  8 11  2  0
  9 12  1  0
  9 13  2  0
  7 14  2  0
  7 15  1  0
  2 16  1  0
M  CHG  4   8   1   9   1  10  -1  12  -1
M  END
>  <Name>  (280) 
3&5-Dinitrosalicylic

>  <logK_La_z=3.0_T=25_I=1.0>  (280) 
4.51

$$$$

     RDKit          2D

 29 30  0  0  0  0  0  0  0  0999 V2000
   14.8587   -7.4053    0.0000 C   0  0  0  0  0  0  0  0  0  0  0  0
   16.0289   -6.7732    0.0000 C   0  0  0  0  0  0  0  0  0  0  0  0
   14.8587   -8.7401    0.0000 N   0  0  0  0  0  0  0  0  0  0  0  0
   17.1516   -7.4825    0.0000 C   0  0  0  0  0  0  0  0  0  0  0  0
   15.9513   -9.4645    0.0000 C   0  0  0  0  0  0  0  0  0  0  0  0
   17.1196   -8.8051    0.0000 C   0  0  0  0  0  0  0  0  0  0  0  0
   15.9896  -10.7405    0.0000 C   0  0  0  0  0  0  0  0  0  0  0  0
   13.7335   -6.8222    0.0000 C   0  0  0  0  0  0  0  0  0  0  0  0
   15.2332  -11.7807    0.0000 N   0  0  0  0  0  0  0  0  0  0  0  0
   12.4740   -6.9134    0.0000 N   0  0  0  0  0  0  0  0  0  0  0  0
   13.9654  -12.0640    0.0000 C   0  0  0  0  0  0  0  0  0  0  0  0
   12.8859  -11.3203    0.0000 C   0  0  0  0  0  0  0  0  0  0  0  0
   11.6749  -11.8675    0.0000 C   0  0  0  0  0  0  0  0  0  0  0  0
   10.5372  -11.1902    0.0000 N   0  0  0  0  0  0  0  0  0  0  0  0
   16.0794  -12.8350    0.0000 C   0  0  0  0  0  0  0  0  0  0  0  0
   15.7024  -14.0843    0.0000 C   0  0  0  0  0  0  0  0  0  0  0  0
   10.5163   -9.8647    0.0000 C   0  0  0  0  0  0  0  0  0  0  0  0
   11.6128   -9.1059    0.0000 C   0  0  0  0  0  0  0  0  0  0  0  0
   11.5192   -7.7983    0.0000 C   0  0  0  0  0  0  0  0  0  0  0  0
   11.9612   -5.6456    0.0000 C   0  0  0  0  0  0  0  0  0  0  0  0
   12.7962   -4.6180    0.0000 C   0  0  0  0  0  0  0  0  0  0  0  0
    9.3868  -11.8588    0.0000 C   0  0  0  0  0  0  0  0  0  0  0  0
    8.2054  -11.2814    0.0000 C   0  0  0  0  0  0  0  0  0  0  0  0
   16.6364  -15.0372    0.0000 O   0  0  0  0  0  0  0  0  0  0  0  0
   14.4302  -14.4720    0.0000 O   0  0  0  0  0  0  0  0  0  0  0  0
    7.0958  -12.0184    0.0000 O   0  0  0  0  0  0  0  0  0  0  0  0
    8.0676   -9.9579    0.0000 O   0  0  0  0  0  0  0  0  0  0  0  0
   12.2484   -3.3905    0.0000 O   0  0  0  0  0  0  0  0  0  0  0  0
   14.1188   -4.6612    0.0000 O   0  0  0  0  0  0  0  0  0  0  0  0
  2  1  2  0
  3  1  1  0
  4  2  1  0
  5  3  2  0
  6  4  2  0
  6  5  1  0
  5  7  1  0
  1  8  1  0
  7  9  1  0
  8 10  1  0
  9 11  1  0
 11 12  1  0
 12 13  1  0
 13 14  1  0
  9 15  1  0
 15 16  1  0
 14 17  1  0
 17 18  1  0
 18 19  1  0
 19 10  1  0
 10 20  1  0
 20 21  1  0
 14 22  1  0
 22 23  1  0
 16 24  2  0
 16 25  1  0
 23 26  1  0
 23 27  2  0
 21 28  2  0
 21 29  1  0
M  END
>  <Name>  (281) 
3&7&11&17-Tetraazabicyclo(11-3-1)heptadeca-1(17)&13&15-triene3&7&11-triacetic

>  <logK_La_z=3.0_T=25_I=1.0>  (281) 
8.7

$$$$

     RDKit          2D

 24 24  0  0  0  0  0  0  0  0999 V2000
   13.6186  -10.4210    0.0000 C   0  0  0  0  0  0  0  0  0  0  0  0
   13.6186  -11.7510    0.0000 C   0  0  0  0  0  0  0  0  0  0  0  0
   12.4668   -9.7560    0.0000 C   0  0  0  0  0  0  0  0  0  0  0  0
   12.4668  -12.4160    0.0000 C   0  0  0  0  0  0  0  0  0  0  0  0
   11.3150  -10.4210    0.0000 C   0  0  0  0  0  0  0  0  0  0  0  0
   11.3150  -11.7510    0.0000 C   0  0  0  0  0  0  0  0  0  0  0  0
   14.7705   -9.7560    0.0000 N   0  0  0  0  0  0  0  0  0  0  0  0
   15.9223  -10.4210    0.0000 N   0  0  0  0  0  0  0  0  0  0  0  0
   12.4668  -13.7460    0.0000 S   0  0  0  0  0  0  0  0  0  0  0  0
   17.0741   -9.7560    0.0000 C   0  0  0  0  0  0  0  0  0  0  0  0
   18.2259  -10.4210    0.0000 C   0  0  0  0  0  0  0  0  0  0  0  0
   17.0741   -8.4260    0.0000 C   0  0  0  0  0  0  0  0  0  0  0  0
   18.2259   -7.7610    0.0000 O   0  0  0  0  0  0  0  0  0  0  0  0
   15.9223   -7.7610    0.0000 C   0  0  0  0  0  0  0  0  0  0  0  0
   19.3777   -9.7560    0.0000 C   0  0  0  0  0  0  0  0  0  0  0  0
   18.2259  -11.7510    0.0000 O   0  0  0  0  0  0  0  0  0  0  0  0
   10.1632   -9.7560    0.0000 S   0  0  0  0  0  0  0  0  0  0  0  0
   11.1369  -13.7460    0.0000 O   0  0  0  0  0  0  0  0  0  0  0  0
   13.7968  -13.7460    0.0000 O   0  0  0  0  0  0  0  0  0  0  0  0
   12.4668   -8.4260    0.0000 O   0  0  0  0  0  0  0  0  0  0  0  0
   10.8282   -8.6042    0.0000 O   0  0  0  0  0  0  0  0  0  0  0  0
    9.4982  -10.9078    0.0000 O   0  0  0  0  0  0  0  0  0  0  0  0
    9.0114   -9.0910    0.0000 O   0  0  0  0  0  0  0  0  0  0  0  0
   12.4668  -15.0760    0.0000 O   0  0  0  0  0  0  0  0  0  0  0  0
  2  1  2  0
  3  1  1  0
  4  2  1  0
  5  3  2  0
  6  4  2  0
  6  5  1  0
  1  7  1  0
  7  8  2  0
  4  9  1  0
  8 10  1  0
 10 11  1  0
 10 12  1  0
 12 13  2  0
 12 14  1  0
 11 15  1  0
 11 16  2  0
  5 17  1  0
  9 18  2  0
  9 19  2  0
  3 20  1  0
 17 21  2  0
 17 22  2  0
 17 23  1  0
  9 24  1  0
M  END
>  <Name>  (282) 
3-(2-hydroxy-3&5-disulfophenylazo)pentane-2&4-dione

>  <logK_La_z=3.0_T=25_I=1.0>  (282) 
6.27

$$$$

     RDKit          2D

 19 19  0  0  0  0  0  0  0  0999 V2000
   11.9172   -8.7365    0.0000 C   0  0  0  0  0  0  0  0  0  0  0  0
   11.9172  -10.0665    0.0000 C   0  0  0  0  0  0  0  0  0  0  0  0
   10.7653   -8.0715    0.0000 C   0  0  0  0  0  0  0  0  0  0  0  0
   10.7653  -10.7315    0.0000 C   0  0  0  0  0  0  0  0  0  0  0  0
    9.6135   -8.7365    0.0000 C   0  0  0  0  0  0  0  0  0  0  0  0
    9.6135  -10.0665    0.0000 C   0  0  0  0  0  0  0  0  0  0  0  0
   13.0690   -8.0715    0.0000 N   0  0  0  0  0  0  0  0  0  0  0  0
   14.2208   -8.7365    0.0000 N   0  0  0  0  0  0  0  0  0  0  0  0
   15.3726   -8.0715    0.0000 C   0  0  0  0  0  0  0  0  0  0  0  0
   16.5244   -8.7365    0.0000 C   0  0  0  0  0  0  0  0  0  0  0  0
   15.3726   -6.7415    0.0000 C   0  0  0  0  0  0  0  0  0  0  0  0
   16.5244   -6.0765    0.0000 O   0  0  0  0  0  0  0  0  0  0  0  0
   14.2208   -6.0765    0.0000 C   0  0  0  0  0  0  0  0  0  0  0  0
   17.6762   -8.0715    0.0000 C   0  0  0  0  0  0  0  0  0  0  0  0
   16.5244  -10.0665    0.0000 O   0  0  0  0  0  0  0  0  0  0  0  0
   10.7653   -6.7415    0.0000 O   0  0  0  0  0  0  0  0  0  0  0  0
    8.4617  -10.7315    0.0000 N   0  0  0  0  0  0  0  0  0  0  0  0
    8.4617  -12.0615    0.0000 O   0  0  0  0  0  0  0  0  0  0  0  0
    7.3099  -10.0665    0.0000 O   0  0  0  0  0  0  0  0  0  0  0  0
  2  1  2  0
  3  1  1  0
  4  2  1  0
  5  3  2  0
  6  4  2  0
  6  5  1  0
  1  7  1  0
  7  8  2  0
  8  9  1  0
  9 10  1  0
  9 11  1  0
 11 12  2  0
 11 13  1  0
 10 14  1  0
 10 15  2  0
  3 16  1  0
  6 17  1  0
 17 18  1  0
 17 19  2  0
M  CHG  2  17   1  18  -1
M  END
>  <Name>  (283) 
3-(2-hydroxy-4-nitrophenylazo)pentane-2&4-dione

>  <logK_La_z=3.0_T=25_I=1.0>  (283) 
6.4

$$$$

     RDKit          2D

 23 23  0  0  0  0  0  0  0  0999 V2000
   13.2180  -10.2741    0.0000 C   0  0  0  0  0  0  0  0  0  0  0  0
   13.2180  -11.6041    0.0000 C   0  0  0  0  0  0  0  0  0  0  0  0
   12.0662   -9.6091    0.0000 C   0  0  0  0  0  0  0  0  0  0  0  0
   12.0662  -12.2691    0.0000 C   0  0  0  0  0  0  0  0  0  0  0  0
   10.9144  -10.2741    0.0000 C   0  0  0  0  0  0  0  0  0  0  0  0
   10.9144  -11.6041    0.0000 C   0  0  0  0  0  0  0  0  0  0  0  0
   14.3699   -9.6091    0.0000 N   0  0  0  0  0  0  0  0  0  0  0  0
   15.5217  -10.2741    0.0000 N   0  0  0  0  0  0  0  0  0  0  0  0
   12.0662  -13.5991    0.0000 N   0  0  0  0  0  0  0  0  0  0  0  0
   16.6735   -9.6091    0.0000 C   0  0  0  0  0  0  0  0  0  0  0  0
   17.8253  -10.2741    0.0000 C   0  0  0  0  0  0  0  0  0  0  0  0
   16.6735   -8.2791    0.0000 C   0  0  0  0  0  0  0  0  0  0  0  0
   17.8253   -7.6141    0.0000 O   0  0  0  0  0  0  0  0  0  0  0  0
   15.5217   -7.6141    0.0000 C   0  0  0  0  0  0  0  0  0  0  0  0
   17.8253  -11.6041    0.0000 C   0  0  0  0  0  0  0  0  0  0  0  0
   18.9771   -9.6091    0.0000 O   0  0  0  0  0  0  0  0  0  0  0  0
    9.7626   -9.6091    0.0000 S   0  0  0  0  0  0  0  0  0  0  0  0
   10.9144  -14.2641    0.0000 O   0  0  0  0  0  0  0  0  0  0  0  0
   13.2180  -14.2641    0.0000 O   0  0  0  0  0  0  0  0  0  0  0  0
   12.0662   -8.2791    0.0000 O   0  0  0  0  0  0  0  0  0  0  0  0
   10.4276   -8.4573    0.0000 O   0  0  0  0  0  0  0  0  0  0  0  0
    9.0976  -10.7609    0.0000 O   0  0  0  0  0  0  0  0  0  0  0  0
    8.6108   -8.9441    0.0000 O   0  0  0  0  0  0  0  0  0  0  0  0
  2  1  2  0
  3  1  1  0
  4  2  1  0
  5  3  2  0
  6  4  2  0
  6  5  1  0
  1  7  1  0
  7  8  2  0
  4  9  1  0
  8 10  1  0
 10 11  1  0
 10 12  1  0
 12 13  2  0
 12 14  1  0
 11 15  1  0
 11 16  2  0
  5 17  1  0
  9 18  2  0
  9 19  1  0
  3 20  1  0
 17 21  2  0
 17 22  2  0
 17 23  1  0
M  CHG  2   9   1  19  -1
M  END
>  <Name>  (284) 
3-(2-hydroxy-5-nitro-3-sulfophenylazo)pentane-2&4-dione

>  <logK_La_z=3.0_T=25_I=1.0>  (284) 
6.23

$$$$

     RDKit          2D

 16 16  0  0  0  0  0  0  0  0999 V2000
   12.0133  -10.5793    0.0000 C   0  0  0  0  0  0  0  0  0  0  0  0
   12.0133  -11.9093    0.0000 C   0  0  0  0  0  0  0  0  0  0  0  0
   10.8615   -9.9143    0.0000 C   0  0  0  0  0  0  0  0  0  0  0  0
   10.8615  -12.5742    0.0000 C   0  0  0  0  0  0  0  0  0  0  0  0
    9.7097  -10.5793    0.0000 C   0  0  0  0  0  0  0  0  0  0  0  0
    9.7097  -11.9093    0.0000 C   0  0  0  0  0  0  0  0  0  0  0  0
   13.1651   -9.9143    0.0000 N   0  0  0  0  0  0  0  0  0  0  0  0
   14.3169  -10.5793    0.0000 N   0  0  0  0  0  0  0  0  0  0  0  0
   15.4687   -9.9143    0.0000 C   0  0  0  0  0  0  0  0  0  0  0  0
   16.6205  -10.5793    0.0000 C   0  0  0  0  0  0  0  0  0  0  0  0
   15.4687   -8.5843    0.0000 C   0  0  0  0  0  0  0  0  0  0  0  0
   16.6205   -7.9193    0.0000 O   0  0  0  0  0  0  0  0  0  0  0  0
   14.3169   -7.9193    0.0000 C   0  0  0  0  0  0  0  0  0  0  0  0
   17.7723   -9.9143    0.0000 C   0  0  0  0  0  0  0  0  0  0  0  0
   16.6205  -11.9093    0.0000 O   0  0  0  0  0  0  0  0  0  0  0  0
   10.8615   -8.5843    0.0000 O   0  0  0  0  0  0  0  0  0  0  0  0
  2  1  2  0
  3  1  1  0
  4  2  1  0
  5  3  2  0
  6  4  2  0
  6  5  1  0
  1  7  1  0
  7  8  2  0
  8  9  1  0
  9 10  1  0
  9 11  1  0
 11 12  2  0
 11 13  1  0
 10 14  1  0
 10 15  2  0
  3 16  1  0
M  END
>  <Name>  (285) 
3-(2-hydroxyphenylazo)pentane-2&4-dione

>  <logK_La_z=3.0_T=25_I=1.0>  (285) 
6.52

$$$$

     RDKit          2D

 21 21  0  0  0  0  0  0  0  0999 V2000
   11.7759   -8.4113    0.0000 C   0  0  0  0  0  0  0  0  0  0  0  0
   11.7759   -9.7413    0.0000 C   0  0  0  0  0  0  0  0  0  0  0  0
   10.6241   -7.7463    0.0000 C   0  0  0  0  0  0  0  0  0  0  0  0
   10.6241  -10.4063    0.0000 C   0  0  0  0  0  0  0  0  0  0  0  0
    9.4723   -8.4113    0.0000 C   0  0  0  0  0  0  0  0  0  0  0  0
    9.4723   -9.7413    0.0000 C   0  0  0  0  0  0  0  0  0  0  0  0
   12.9277   -7.7463    0.0000 N   0  0  0  0  0  0  0  0  0  0  0  0
   14.0795   -8.4113    0.0000 N   0  0  0  0  0  0  0  0  0  0  0  0
   15.2313   -7.7463    0.0000 C   0  0  0  0  0  0  0  0  0  0  0  0
   16.3831   -8.4113    0.0000 C   0  0  0  0  0  0  0  0  0  0  0  0
   15.2313   -6.4163    0.0000 C   0  0  0  0  0  0  0  0  0  0  0  0
   16.3831   -5.7513    0.0000 O   0  0  0  0  0  0  0  0  0  0  0  0
   14.0795   -5.7513    0.0000 C   0  0  0  0  0  0  0  0  0  0  0  0
   17.5349   -7.7463    0.0000 C   0  0  0  0  0  0  0  0  0  0  0  0
   16.3831   -9.7413    0.0000 O   0  0  0  0  0  0  0  0  0  0  0  0
    8.3205   -7.7463    0.0000 S   0  0  0  0  0  0  0  0  0  0  0  0
   10.6241   -6.4163    0.0000 O   0  0  0  0  0  0  0  0  0  0  0  0
    8.9855   -6.5945    0.0000 O   0  0  0  0  0  0  0  0  0  0  0  0
    7.6555   -8.8981    0.0000 O   0  0  0  0  0  0  0  0  0  0  0  0
    7.1687   -7.0813    0.0000 O   0  0  0  0  0  0  0  0  0  0  0  0
   10.6241  -11.7363    0.0000 Cl  0  0  0  0  0  0  0  0  0  0  0  0
  2  1  2  0
  3  1  1  0
  4  2  1  0
  5  3  2  0
  6  4  2  0
  6  5  1  0
  1  7  1  0
  7  8  2  0
  8  9  1  0
  9 10  1  0
  9 11  1  0
 11 12  2  0
 11 13  1  0
 10 14  1  0
 10 15  2  0
  5 16  1  0
  3 17  1  0
 16 18  2  0
 16 19  2  0
 16 20  1  0
  4 21  1  0
M  END
>  <Name>  (286) 
3-(5-chloro-2-hydroxy-3-sulfophenylazo)pentane-2&4-dione

>  <logK_La_z=3.0_T=25_I=1.0>  (286) 
6.32

$$$$

     RDKit          2D

 10  9  0  0  0  0  0  0  0  0999 V2000
   12.5148   -6.7141    0.0000 C   0  0  0  0  0  0  0  0  0  0  0  0
   11.2169   -7.4672    0.0000 C   0  0  0  0  0  0  0  0  0  0  0  0
   10.0636   -6.8047    0.0000 O   0  0  0  0  0  0  0  0  0  0  0  0
   11.2197   -8.7972    0.0000 C   0  0  0  0  0  0  0  0  0  0  0  0
   10.0694   -9.4647    0.0000 C   0  0  0  0  0  0  0  0  0  0  0  0
   12.3730   -9.4597    0.0000 C   0  0  0  0  0  0  0  0  0  0  0  0
   12.3759  -10.7897    0.0000 O   0  0  0  0  0  0  0  0  0  0  0  0
   13.5234   -8.7922    0.0000 C   0  0  0  0  0  0  0  0  0  0  0  0
    8.9161   -8.8022    0.0000 C   0  0  0  0  0  0  0  0  0  0  0  0
    7.7658   -9.4697    0.0000 C   0  0  0  0  0  0  0  0  0  0  0  0
  1  2  1  0
  2  3  2  0
  2  4  1  0
  4  5  1  0
  4  6  1  0
  6  7  2  0
  6  8  1  0
  5  9  1  0
  9 10  2  0
M  END
>  <Name>  (287) 
3-allylpentanedione

>  <logK_La_z=3.0_T=25_I=1.0>  (287) 
4.98

$$$$

     RDKit          2D

 18 19  0  0  0  0  0  0  0  0999 V2000
   14.0276   -9.6593    0.0000 N   0  0  0  0  0  0  0  0  0  0  0  0
   15.3745   -9.6593    0.0000 N   0  0  0  0  0  0  0  0  0  0  0  0
   16.0479  -10.8257    0.0000 C   0  0  0  0  0  0  0  0  0  0  0  0
   17.3948  -10.8257    0.0000 C   0  0  0  0  0  0  0  0  0  0  0  0
   15.3745  -11.9922    0.0000 C   0  0  0  0  0  0  0  0  0  0  0  0
   18.0683  -11.9922    0.0000 C   0  0  0  0  0  0  0  0  0  0  0  0
   16.0479  -13.1586    0.0000 C   0  0  0  0  0  0  0  0  0  0  0  0
   17.3948  -13.1586    0.0000 C   0  0  0  0  0  0  0  0  0  0  0  0
   13.3541   -8.4928    0.0000 C   0  0  0  0  0  0  0  0  0  0  0  0
   12.0072   -8.4928    0.0000 C   0  0  0  0  0  0  0  0  0  0  0  0
   14.0276   -7.3264    0.0000 C   0  0  0  0  0  0  0  0  0  0  0  0
   11.3338   -7.3264    0.0000 C   0  0  0  0  0  0  0  0  0  0  0  0
   13.3541   -6.1599    0.0000 C   0  0  0  0  0  0  0  0  0  0  0  0
   12.0072   -6.1599    0.0000 C   0  0  0  0  0  0  0  0  0  0  0  0
   15.3745   -7.3264    0.0000 O   0  0  0  0  0  0  0  0  0  0  0  0
   14.0276   -4.9935    0.0000 O   0  0  0  0  0  0  0  0  0  0  0  0
   11.3338   -4.9935    0.0000 O   0  0  0  0  0  0  0  0  0  0  0  0
   18.0683  -14.3251    0.0000 Br  0  0  0  0  0  0  0  0  0  0  0  0
  1  2  2  0
  4  3  2  0
  5  3  1  0
  6  4  1  0
  7  5  2  0
  8  6  2  0
  8  7  1  0
  2  3  1  0
 10  9  2  0
 11  9  1  0
 12 10  1  0
 13 11  2  0
 14 12  2  0
 14 13  1  0
  1  9  1  0
 11 15  1  0
 13 16  1  0
 14 17  1  0
  8 18  1  0
M  END
>  <Name>  (288) 
4-((E)-(4-Bromophenyl)diazenyl)-1&2&3-benzenetriol

>  <logK_La_z=3.0_T=25_I=1.0>  (288) 
8.09

$$$$

     RDKit          2D

 18 19  0  0  0  0  0  0  0  0999 V2000
   13.5789  -12.6718    0.0000 N   0  0  0  0  0  0  0  0  0  0  0  0
   14.9258  -12.6718    0.0000 N   0  0  0  0  0  0  0  0  0  0  0  0
   15.5993  -13.8383    0.0000 C   0  0  0  0  0  0  0  0  0  0  0  0
   16.9462  -13.8383    0.0000 C   0  0  0  0  0  0  0  0  0  0  0  0
   14.9258  -15.0047    0.0000 C   0  0  0  0  0  0  0  0  0  0  0  0
   17.6196  -15.0047    0.0000 C   0  0  0  0  0  0  0  0  0  0  0  0
   15.5993  -16.1712    0.0000 C   0  0  0  0  0  0  0  0  0  0  0  0
   16.9462  -16.1712    0.0000 C   0  0  0  0  0  0  0  0  0  0  0  0
   12.9055  -11.5054    0.0000 C   0  0  0  0  0  0  0  0  0  0  0  0
   11.5586  -11.5054    0.0000 C   0  0  0  0  0  0  0  0  0  0  0  0
   13.5789  -10.3389    0.0000 C   0  0  0  0  0  0  0  0  0  0  0  0
   10.8851  -10.3389    0.0000 C   0  0  0  0  0  0  0  0  0  0  0  0
   12.9055   -9.1725    0.0000 C   0  0  0  0  0  0  0  0  0  0  0  0
   11.5586   -9.1725    0.0000 C   0  0  0  0  0  0  0  0  0  0  0  0
   14.9258  -10.3389    0.0000 O   0  0  0  0  0  0  0  0  0  0  0  0
   13.5789   -8.0060    0.0000 O   0  0  0  0  0  0  0  0  0  0  0  0
   10.8851   -8.0060    0.0000 O   0  0  0  0  0  0  0  0  0  0  0  0
   17.6196  -17.3376    0.0000 Cl  0  0  0  0  0  0  0  0  0  0  0  0
  1  2  2  0
  4  3  2  0
  5  3  1  0
  6  4  1  0
  7  5  2  0
  8  6  2  0
  8  7  1  0
  2  3  1  0
 10  9  2  0
 11  9  1  0
 12 10  1  0
 13 11  2  0
 14 12  2  0
 14 13  1  0
  1  9  1  0
 11 15  1  0
 13 16  1  0
 14 17  1  0
  8 18  1  0
M  END
>  <Name>  (289) 
4-((E)-(4-Chlorophenyl)diazenyl)-1&2&3-benzenetriol

>  <logK_La_z=3.0_T=25_I=1.0>  (289) 
7.91

$$$$

     RDKit          2D

 18 19  0  0  0  0  0  0  0  0999 V2000
   14.2840  -11.1656    0.0000 N   0  0  0  0  0  0  0  0  0  0  0  0
   15.6309  -11.1656    0.0000 N   0  0  0  0  0  0  0  0  0  0  0  0
   16.3043  -12.3320    0.0000 C   0  0  0  0  0  0  0  0  0  0  0  0
   17.6512  -12.3320    0.0000 C   0  0  0  0  0  0  0  0  0  0  0  0
   15.6309  -13.4985    0.0000 C   0  0  0  0  0  0  0  0  0  0  0  0
   18.3247  -13.4985    0.0000 C   0  0  0  0  0  0  0  0  0  0  0  0
   16.3043  -14.6649    0.0000 C   0  0  0  0  0  0  0  0  0  0  0  0
   17.6512  -14.6649    0.0000 C   0  0  0  0  0  0  0  0  0  0  0  0
   13.6105   -9.9991    0.0000 C   0  0  0  0  0  0  0  0  0  0  0  0
   12.2636   -9.9991    0.0000 C   0  0  0  0  0  0  0  0  0  0  0  0
   14.2840   -8.8327    0.0000 C   0  0  0  0  0  0  0  0  0  0  0  0
   11.5902   -8.8327    0.0000 C   0  0  0  0  0  0  0  0  0  0  0  0
   13.6105   -7.6662    0.0000 C   0  0  0  0  0  0  0  0  0  0  0  0
   12.2636   -7.6662    0.0000 C   0  0  0  0  0  0  0  0  0  0  0  0
   15.6309   -8.8327    0.0000 O   0  0  0  0  0  0  0  0  0  0  0  0
   14.2840   -6.4998    0.0000 O   0  0  0  0  0  0  0  0  0  0  0  0
   11.5902   -6.4998    0.0000 O   0  0  0  0  0  0  0  0  0  0  0  0
   18.3247  -15.8314    0.0000 F   0  0  0  0  0  0  0  0  0  0  0  0
  1  2  2  0
  4  3  2  0
  5  3  1  0
  6  4  1  0
  7  5  2  0
  8  6  2  0
  8  7  1  0
  2  3  1  0
 10  9  2  0
 11  9  1  0
 12 10  1  0
 13 11  2  0
 14 12  2  0
 14 13  1  0
  1  9  1  0
 11 15  1  0
 13 16  1  0
 14 17  1  0
  8 18  1  0
M  END
>  <Name>  (290) 
4-((E)-(4-Fluorophenyl)diazenyl)-1&2&3-benzenetriol

>  <logK_La_z=3.0_T=25_I=1.0>  (290) 
7.53

$$$$

     RDKit          2D

 18 19  0  0  0  0  0  0  0  0999 V2000
   12.6335  -10.5406    0.0000 N   0  0  0  0  0  0  0  0  0  0  0  0
   13.9804  -10.5406    0.0000 N   0  0  0  0  0  0  0  0  0  0  0  0
   14.6538  -11.7071    0.0000 C   0  0  0  0  0  0  0  0  0  0  0  0
   16.0007  -11.7071    0.0000 C   0  0  0  0  0  0  0  0  0  0  0  0
   13.9804  -12.8735    0.0000 C   0  0  0  0  0  0  0  0  0  0  0  0
   16.6742  -12.8735    0.0000 C   0  0  0  0  0  0  0  0  0  0  0  0
   14.6538  -14.0400    0.0000 C   0  0  0  0  0  0  0  0  0  0  0  0
   16.0007  -14.0400    0.0000 C   0  0  0  0  0  0  0  0  0  0  0  0
   11.9600   -9.3742    0.0000 C   0  0  0  0  0  0  0  0  0  0  0  0
   10.6131   -9.3742    0.0000 C   0  0  0  0  0  0  0  0  0  0  0  0
   12.6335   -8.2077    0.0000 C   0  0  0  0  0  0  0  0  0  0  0  0
    9.9397   -8.2077    0.0000 C   0  0  0  0  0  0  0  0  0  0  0  0
   11.9600   -7.0413    0.0000 C   0  0  0  0  0  0  0  0  0  0  0  0
   10.6131   -7.0413    0.0000 C   0  0  0  0  0  0  0  0  0  0  0  0
   13.9804   -8.2077    0.0000 O   0  0  0  0  0  0  0  0  0  0  0  0
   12.6335   -5.8748    0.0000 O   0  0  0  0  0  0  0  0  0  0  0  0
    9.9397   -5.8748    0.0000 O   0  0  0  0  0  0  0  0  0  0  0  0
   16.6742  -15.2064    0.0000 I   0  0  0  0  0  0  0  0  0  0  0  0
  1  2  2  0
  4  3  2  0
  5  3  1  0
  6  4  1  0
  7  5  2  0
  8  6  2  0
  8  7  1  0
  2  3  1  0
 10  9  2  0
 11  9  1  0
 12 10  1  0
 13 11  2  0
 14 12  2  0
 14 13  1  0
  1  9  1  0
 11 15  1  0
 13 16  1  0
 14 17  1  0
  8 18  1  0
M  END
>  <Name>  (291) 
4-((E)-(4-Iodophenyl)diazenyl)-1&2&3-benzenetriol

>  <logK_La_z=3.0_T=25_I=1.0>  (291) 
8.17

$$$$

     RDKit          2D

 17 18  0  0  0  0  0  0  0  0999 V2000
   13.1714  -10.2357    0.0000 N   0  0  0  0  0  0  0  0  0  0  0  0
   14.5183  -10.2357    0.0000 N   0  0  0  0  0  0  0  0  0  0  0  0
   15.1917  -11.4021    0.0000 C   0  0  0  0  0  0  0  0  0  0  0  0
   16.5386  -11.4021    0.0000 C   0  0  0  0  0  0  0  0  0  0  0  0
   14.5183  -12.5685    0.0000 C   0  0  0  0  0  0  0  0  0  0  0  0
   17.2120  -12.5685    0.0000 C   0  0  0  0  0  0  0  0  0  0  0  0
   15.1917  -13.7350    0.0000 C   0  0  0  0  0  0  0  0  0  0  0  0
   16.5386  -13.7350    0.0000 C   0  0  0  0  0  0  0  0  0  0  0  0
   12.4979   -9.0692    0.0000 C   0  0  0  0  0  0  0  0  0  0  0  0
   11.1511   -9.0692    0.0000 C   0  0  0  0  0  0  0  0  0  0  0  0
   13.1714   -7.9028    0.0000 C   0  0  0  0  0  0  0  0  0  0  0  0
   10.4776   -7.9028    0.0000 C   0  0  0  0  0  0  0  0  0  0  0  0
   12.4979   -6.7364    0.0000 C   0  0  0  0  0  0  0  0  0  0  0  0
   11.1511   -6.7364    0.0000 C   0  0  0  0  0  0  0  0  0  0  0  0
   14.5183   -7.9028    0.0000 O   0  0  0  0  0  0  0  0  0  0  0  0
   13.1714   -5.5699    0.0000 O   0  0  0  0  0  0  0  0  0  0  0  0
   10.4776   -5.5699    0.0000 O   0  0  0  0  0  0  0  0  0  0  0  0
  1  2  2  0
  4  3  2  0
  5  3  1  0
  6  4  1  0
  7  5  2  0
  8  6  2  0
  8  7  1  0
  2  3  1  0
 10  9  2  0
 11  9  1  0
 12 10  1  0
 13 11  2  0
 14 12  2  0
 14 13  1  0
  1  9  1  0
 11 15  1  0
 13 16  1  0
 14 17  1  0
M  END
>  <Name>  (292) 
4-((E)-Phenyldiazenyl)-1&2&3-benzenetriol

>  <logK_La_z=3.0_T=25_I=1.0>  (292) 
8.25

$$$$

     RDKit          2D

 11 11  0  0  0  0  0  0  0  0999 V2000
   16.7532   -9.4582    0.0000 C   0  0  0  0  0  0  0  0  0  0  0  0
   16.7532  -10.7882    0.0000 C   0  0  0  0  0  0  0  0  0  0  0  0
   15.6014   -8.7932    0.0000 C   0  0  0  0  0  0  0  0  0  0  0  0
   15.6014  -11.4532    0.0000 C   0  0  0  0  0  0  0  0  0  0  0  0
   14.4496   -9.4582    0.0000 C   0  0  0  0  0  0  0  0  0  0  0  0
   14.4496  -10.7882    0.0000 C   0  0  0  0  0  0  0  0  0  0  0  0
   15.6014   -7.4632    0.0000 N   0  0  0  0  0  0  0  0  0  0  0  0
   17.9050  -11.4532    0.0000 O   0  0  0  0  0  0  0  0  0  0  0  0
   15.6014  -12.7832    0.0000 O   0  0  0  0  0  0  0  0  0  0  0  0
   16.7532   -6.7982    0.0000 O   0  0  0  0  0  0  0  0  0  0  0  0
   14.4496   -6.7982    0.0000 O   0  0  0  0  0  0  0  0  0  0  0  0
  2  1  2  0
  3  1  1  0
  4  2  1  0
  5  3  2  0
  6  4  2  0
  6  5  1  0
  3  7  1  0
  2  8  1  0
  4  9  1  0
  7 10  2  0
  7 11  1  0
M  CHG  1   7   1
M  END
>  <Name>  (293) 
4-Nitrocatechol

>  <logK_La_z=3.0_T=25_I=1.0>  (293) 
7.81

$$$$

     RDKit          2D

 23 23  0  0  0  0  0  0  0  0999 V2000
   16.1095  -23.9210    0.0000 C   0  0  0  0  0  0  0  0  0  0  0  0
   14.1072  -23.9211    0.0000 C   0  0  0  0  0  0  0  0  0  0  0  0
   19.8706  -19.7137    0.0000 C   0  0  0  0  0  0  0  0  0  0  0  0
   19.2627  -21.6035    0.0000 C   0  0  0  0  0  0  0  0  0  0  0  0
   17.9257  -23.1057    0.0000 O   0  0  0  0  0  0  0  0  0  0  0  0
   10.3291  -19.7376    0.0000 C   0  0  0  0  0  0  0  0  0  0  0  0
   10.9477  -21.6450    0.0000 C   0  0  0  0  0  0  0  0  0  0  0  0
   12.2907  -23.1270    0.0000 O   0  0  0  0  0  0  0  0  0  0  0  0
   17.0290  -14.8374    0.0000 C   0  0  0  0  0  0  0  0  0  0  0  0
   18.6558  -16.0047    0.0000 C   0  0  0  0  0  0  0  0  0  0  0  0
   11.5204  -16.0337    0.0000 C   0  0  0  0  0  0  0  0  0  0  0  0
   13.1351  -14.8447    0.0000 C   0  0  0  0  0  0  0  0  0  0  0  0
   15.0902  -14.4235    0.0000 O   0  0  0  0  0  0  0  0  0  0  0  0
   10.5312  -17.7591    0.0000 N   0  0  0  0  0  0  0  0  0  0  0  0
   19.6561  -17.7260    0.0000 N   0  0  0  0  0  0  0  0  0  0  0  0
   21.5632  -17.1079    0.0000 C   0  0  0  0  0  0  0  0  0  0  0  0
   23.0526  -18.4408    0.0000 C   0  0  0  0  0  0  0  0  0  0  0  0
    8.6279  -17.1469    0.0000 C   0  0  0  0  0  0  0  0  0  0  0  0
    7.1500  -18.4770    0.0000 C   0  0  0  0  0  0  0  0  0  0  0  0
    7.5710  -20.4327    0.0000 O   0  0  0  0  0  0  0  0  0  0  0  0
    5.2473  -17.8650    0.0000 O   0  0  0  0  0  0  0  0  0  0  0  0
   22.6346  -20.3923    0.0000 O   0  0  0  0  0  0  0  0  0  0  0  0
   24.9465  -17.8178    0.0000 O   0  0  0  0  0  0  0  0  0  0  0  0
  1  2  1  0
  3  4  1  0
  4  5  1  0
  1  5  1  0
  6  7  1  0
  7  8  1  0
  2  8  1  0
  9 10  1  0
 11 12  1  0
 12 13  1  0
  9 13  1  0
 11 14  1  0
  6 14  1  0
 10 15  1  0
  3 15  1  0
 15 16  1  0
 16 17  1  0
 14 18  1  0
 18 19  1  0
 19 20  1  0
 19 21  2  0
 17 22  2  0
 17 23  1  0
M  END
>  <Name>  (294) 
A2-15C5-8

>  <logK_La_z=3.0_T=25_I=1.0>  (294) 
10.11

$$$$

     RDKit          2D

 26 26  0  0  0  0  0  0  0  0999 V2000
   15.5525  -13.8429    0.0000 C   0  0  0  0  0  0  0  0  0  0  0  0
   14.0086  -14.7475    0.0000 C   0  0  0  0  0  0  0  0  0  0  0  0
   21.9873  -11.4892    0.0000 C   0  0  0  0  0  0  0  0  0  0  0  0
   22.5768  -13.1841    0.0000 C   0  0  0  0  0  0  0  0  0  0  0  0
   18.6566  -12.0430    0.0000 C   0  0  0  0  0  0  0  0  0  0  0  0
   18.6693  -13.8464    0.0000 C   0  0  0  0  0  0  0  0  0  0  0  0
   18.6540   -8.4710    0.0000 C   0  0  0  0  0  0  0  0  0  0  0  0
   20.2026   -9.3651    0.0000 C   0  0  0  0  0  0  0  0  0  0  0  0
   20.2247  -11.1524    0.0000 N   0  0  0  0  0  0  0  0  0  0  0  0
    9.1399   -9.0218    0.0000 C   0  0  0  0  0  0  0  0  0  0  0  0
    7.9644  -10.3777    0.0000 C   0  0  0  0  0  0  0  0  0  0  0  0
   10.8905  -11.1512    0.0000 C   0  0  0  0  0  0  0  0  0  0  0  0
   12.4633  -12.0593    0.0000 C   0  0  0  0  0  0  0  0  0  0  0  0
   12.4458   -8.4573    0.0000 C   0  0  0  0  0  0  0  0  0  0  0  0
   12.4573   -6.6679    0.0000 C   0  0  0  0  0  0  0  0  0  0  0  0
   10.9019   -9.3619    0.0000 N   0  0  0  0  0  0  0  0  0  0  0  0
   15.5648   -6.6875    0.0000 C   0  0  0  0  0  0  0  0  0  0  0  0
   17.1087   -5.7829    0.0000 C   0  0  0  0  0  0  0  0  0  0  0  0
   13.9919   -5.7794    0.0000 O   0  0  0  0  0  0  0  0  0  0  0  0
   18.6654   -6.6816    0.0000 O   0  0  0  0  0  0  0  0  0  0  0  0
   17.1012  -14.7370    0.0000 O   0  0  0  0  0  0  0  0  0  0  0  0
   12.4519  -13.8487    0.0000 O   0  0  0  0  0  0  0  0  0  0  0  0
   24.3394  -13.5210    0.0000 O   0  0  0  0  0  0  0  0  0  0  0  0
   21.4038  -14.5421    0.0000 O   0  0  0  0  0  0  0  0  0  0  0  0
    6.2025  -10.0376    0.0000 O   0  0  0  0  0  0  0  0  0  0  0  0
    8.5509  -12.0736    0.0000 O   0  0  0  0  0  0  0  0  0  0  0  0
  1  2  1  0
  3  4  1  0
  5  6  1  0
  7  8  1  0
  8  9  1  0
  5  9  1  0
  3  9  1  0
 10 11  1  0
 12 13  1  0
 14 15  1  0
 14 16  1  0
 12 16  1  0
 10 16  1  0
 17 18  1  0
 17 19  1  0
 15 19  1  0
 18 20  1  0
  7 20  1  0
  6 21  1  0
  1 21  1  0
  2 22  1  0
 13 22  1  0
  4 23  1  0
  4 24  2  0
 11 25  1  0
 11 26  2  0
M  END
>  <Name>  (295) 
A2-18C6-17

>  <logK_La_z=3.0_T=25_I=1.0>  (295) 
12.21

$$$$

     RDKit          2D

 28 28  0  0  0  0  0  0  0  0999 V2000
   15.0695  -12.6647    0.0000 C   0  0  0  0  0  0  0  0  0  0  0  0
   13.8947  -13.3530    0.0000 C   0  0  0  0  0  0  0  0  0  0  0  0
   17.4314  -11.2951    0.0000 C   0  0  0  0  0  0  0  0  0  0  0  0
   17.4411  -12.6673    0.0000 C   0  0  0  0  0  0  0  0  0  0  0  0
   17.4294   -8.5772    0.0000 C   0  0  0  0  0  0  0  0  0  0  0  0
   18.6078   -9.2575    0.0000 C   0  0  0  0  0  0  0  0  0  0  0  0
   18.6246  -10.6174    0.0000 N   0  0  0  0  0  0  0  0  0  0  0  0
   15.0788   -7.2201    0.0000 C   0  0  0  0  0  0  0  0  0  0  0  0
   16.2536   -6.5317    0.0000 C   0  0  0  0  0  0  0  0  0  0  0  0
   11.5221  -10.6166    0.0000 C   0  0  0  0  0  0  0  0  0  0  0  0
   12.7189  -11.3075    0.0000 C   0  0  0  0  0  0  0  0  0  0  0  0
   12.7143   -7.2051    0.0000 C   0  0  0  0  0  0  0  0  0  0  0  0
   12.7056   -8.5667    0.0000 C   0  0  0  0  0  0  0  0  0  0  0  0
   11.5308   -9.2550    0.0000 N   0  0  0  0  0  0  0  0  0  0  0  0
   13.8820   -6.5291    0.0000 O   0  0  0  0  0  0  0  0  0  0  0  0
   17.4381   -7.2156    0.0000 O   0  0  0  0  0  0  0  0  0  0  0  0
   16.2479  -13.3450    0.0000 O   0  0  0  0  0  0  0  0  0  0  0  0
   12.7102  -12.6691    0.0000 O   0  0  0  0  0  0  0  0  0  0  0  0
   19.9658  -10.8737    0.0000 C   0  0  0  0  0  0  0  0  0  0  0  0
   20.4144  -12.1634    0.0000 C   0  0  0  0  0  0  0  0  0  0  0  0
   21.7555  -12.4197    0.0000 C   0  0  0  0  0  0  0  0  0  0  0  0
   10.1901   -8.9962    0.0000 C   0  0  0  0  0  0  0  0  0  0  0  0
    9.2957  -10.0279    0.0000 C   0  0  0  0  0  0  0  0  0  0  0  0
    7.9550   -9.7692    0.0000 C   0  0  0  0  0  0  0  0  0  0  0  0
   22.6481  -11.3864    0.0000 O   0  0  0  0  0  0  0  0  0  0  0  0
   22.2042  -13.7093    0.0000 O   0  0  0  0  0  0  0  0  0  0  0  0
    7.5088   -8.4787    0.0000 O   0  0  0  0  0  0  0  0  0  0  0  0
    7.0606  -10.8009    0.0000 O   0  0  0  0  0  0  0  0  0  0  0  0
  1  2  1  0
  3  4  1  0
  5  6  1  0
  6  7  1  0
  3  7  1  0
  8  9  1  0
 10 11  1  0
 12 13  1  0
 13 14  1  0
 10 14  1  0
 12 15  1  0
  8 15  1  0
  9 16  1  0
  5 16  1  0
  4 17  1  0
  1 17  1  0
  2 18  1  0
 11 18  1  0
  7 19  1  0
 19 20  1  0
 20 21  1  0
 14 22  1  0
 22 23  1  0
 23 24  1  0
 21 25  1  0
 21 26  2  0
 24 27  2  0
 24 28  1  0
M  END
>  <Name>  (296) 
A2-18C6-22

>  <logK_La_z=3.0_T=25_I=1.0>  (296) 
6.18

$$$$

     RDKit          2D

 32 34  0  0  0  0  0  0  0  0999 V2000
   10.5900  -10.4610    0.0000 N   0  0  0  0  0  0  0  0  0  0  0  0
   11.9348   -9.6971    0.0000 C   0  0  0  0  0  0  0  0  0  0  0  0
   11.9239   -8.1505    0.0000 C   0  0  0  0  0  0  0  0  0  0  0  0
   13.2687   -7.3867    0.0000 O   0  0  0  0  0  0  0  0  0  0  0  0
   14.5969   -8.1535    0.0000 C   0  0  0  0  0  0  0  0  0  0  0  0
   15.9210   -7.3777    0.0000 C   0  0  0  0  0  0  0  0  0  0  0  0
   17.2561   -8.1485    0.0000 O   0  0  0  0  0  0  0  0  0  0  0  0
   17.2463   -9.6831    0.0000 C   0  0  0  0  0  0  0  0  0  0  0  0
   18.5952  -10.4619    0.0000 C   0  0  0  0  0  0  0  0  0  0  0  0
   18.5854  -11.9965    0.0000 N   0  0  0  0  0  0  0  0  0  0  0  0
   17.2612  -12.7723    0.0000 C   0  0  0  0  0  0  0  0  0  0  0  0
   17.2514  -14.3070    0.0000 C   0  0  0  0  0  0  0  0  0  0  0  0
   15.9353  -15.0689    0.0000 O   0  0  0  0  0  0  0  0  0  0  0  0
   14.5864  -14.2901    0.0000 C   0  0  0  0  0  0  0  0  0  0  0  0
   13.2623  -15.0659    0.0000 C   0  0  0  0  0  0  0  0  0  0  0  0
   11.9272  -14.2951    0.0000 O   0  0  0  0  0  0  0  0  0  0  0  0
   11.9370  -12.7605    0.0000 C   0  0  0  0  0  0  0  0  0  0  0  0
   10.6089  -11.9937    0.0000 C   0  0  0  0  0  0  0  0  0  0  0  0
   20.0964  -12.2882    0.0000 C   0  0  0  0  0  0  0  0  0  0  0  0
    9.0783  -10.1721    0.0000 C   0  0  0  0  0  0  0  0  0  0  0  0
   20.5994  -13.7427    0.0000 C   0  0  0  0  0  0  0  0  0  0  0  0
   22.1105  -14.0343    0.0000 C   0  0  0  0  0  0  0  0  0  0  0  0
   19.5913  -14.9055    0.0000 C   0  0  0  0  0  0  0  0  0  0  0  0
   22.6135  -15.4888    0.0000 C   0  0  0  0  0  0  0  0  0  0  0  0
   20.0942  -16.3599    0.0000 C   0  0  0  0  0  0  0  0  0  0  0  0
   21.6053  -16.6516    0.0000 N   0  0  0  0  0  0  0  0  0  0  0  0
    8.5727   -8.7185    0.0000 C   0  0  0  0  0  0  0  0  0  0  0  0
    7.0611   -8.4296    0.0000 C   0  0  0  0  0  0  0  0  0  0  0  0
    9.5787   -7.5538    0.0000 C   0  0  0  0  0  0  0  0  0  0  0  0
    6.5555   -6.9761    0.0000 C   0  0  0  0  0  0  0  0  0  0  0  0
    9.0731   -6.1003    0.0000 C   0  0  0  0  0  0  0  0  0  0  0  0
    7.5615   -5.8114    0.0000 N   0  0  0  0  0  0  0  0  0  0  0  0
  1  2  1  0
  2  3  1  0
  3  4  1  0
  4  5  1  0
  5  6  1  0
  6  7  1  0
  7  8  1  0
  8  9  1  0
  9 10  1  0
 10 11  1  0
 11 12  1  0
 12 13  1  0
 13 14  1  0
 14 15  1  0
 15 16  1  0
 16 17  1  0
 17 18  1  0
 18  1  1  0
 10 19  1  0
  1 20  1  0
 22 21  2  0
 23 21  1  0
 24 22  1  0
 25 23  2  0
 26 24  2  0
 26 25  1  0
 19 21  1  0
 28 27  2  0
 29 27  1  0
 30 28  1  0
 31 29  2  0
 32 30  2  0
 32 31  1  0
 20 27  1  0
M  END
>  <Name>  (297) 
A2-18C6-40

>  <logK_La_z=3.0_T=25_I=1.0>  (297) 
6.53

$$$$

     RDKit          2D

 24 24  0  0  1  0  0  0  0  0999 V2000
   13.5002   -9.0790    0.0000 N   0  0  0  0  0  0  0  0  0  0  0  0
   14.6669   -8.1006    0.0000 C   0  0  0  0  0  0  0  0  0  0  0  0
   16.1046   -7.5733    0.0000 C   0  0  0  0  0  0  0  0  0  0  0  0
   17.6346   -7.5597    0.0000 O   0  0  0  0  0  0  0  0  0  0  0  0
   19.0776   -8.0860    0.0000 C   0  0  0  0  0  0  0  0  0  0  0  0
   20.2508   -9.0584    0.0000 C   0  0  0  0  0  0  0  0  0  0  0  0
   21.0182  -10.3868    0.0000 O   0  0  0  0  0  0  0  0  0  0  0  0
   21.2893  -11.9002    0.0000 C   0  0  0  0  0  0  0  0  0  0  0  0
   21.0392  -13.3961    0.0000 C   0  0  0  0  0  0  0  0  0  0  0  0
   20.2727  -14.7237    0.0000 N   0  0  0  0  0  0  0  0  0  0  0  0
   19.1007  -15.7112    0.0000 C   0  0  0  0  0  0  0  0  0  0  0  0
   17.6580  -16.2473    0.0000 C   0  0  0  0  0  0  0  0  0  0  0  0
   16.1330  -16.2521    0.0000 O   0  0  0  0  0  0  0  0  0  0  0  0
   14.6848  -15.7349    0.0000 C   0  0  0  0  0  0  0  0  0  0  0  0
   13.5169  -14.7534    0.0000 C   0  0  0  0  0  0  0  0  0  0  0  0
   12.7493  -13.4254    0.0000 O   0  0  0  0  0  0  0  0  0  0  0  0
   12.4733  -11.9203    0.0000 C   0  0  0  0  0  0  0  0  0  0  0  0
   12.7337  -10.4066    0.0000 C   0  0  0  0  0  0  0  0  0  0  0  0
   21.2322   -7.8899    0.0000 C   0  0  0  0  0  0  0  0  0  0  0  0
   20.7399   -5.1866    0.0000 C   0  0  0  0  0  0  0  0  0  0  0  0
   20.7099   -6.4435    0.0000 O   0  0  0  0  0  0  0  0  0  0  0  0
   22.7459   -8.1504    0.0000 O   0  0  0  0  0  0  0  0  0  0  0  0
   22.2701   -5.1726    0.0000 O   0  0  0  0  0  0  0  0  0  0  0  0
   19.9725   -3.8582    0.0000 O   0  0  0  0  0  0  0  0  0  0  0  0
  1  2  1  0
  2  3  1  0
  3  4  1  0
  4  5  1  0
  5  6  1  0
  6  7  1  0
  7  8  1  0
  8  9  1  0
  9 10  1  0
 10 11  1  0
 11 12  1  0
 12 13  1  0
 13 14  1  0
 14 15  1  0
 15 16  1  0
 16 17  1  0
 17 18  1  0
 18  1  1  0
  6 19  1  1
  5 20  1  6
 19 21  2  0
 19 22  1  0
 20 23  2  0
 20 24  1  0
M  END
>  <Name>  (298) 
A2-18C6-53

>  <logK_La_z=3.0_T=25_I=1.0>  (298) 
5.5

$$$$

     RDKit          2D

 30 30  0  0  1  0  0  0  0  0999 V2000
   18.4473  -13.9780    0.0000 N   0  0  0  0  0  0  0  0  0  0  0  0
   18.6890  -12.5731    0.0000 C   0  0  0  0  0  0  0  0  0  0  0  0
   18.5313  -11.1463    0.0000 C   0  0  0  0  0  0  0  0  0  0  0  0
   19.4158  -10.0059    0.0000 O   0  0  0  0  0  0  0  0  0  0  0  0
   19.5914   -8.5466    0.0000 C   0  0  0  0  0  0  0  0  0  0  0  0
   18.7135   -7.3101    0.0000 C   0  0  0  0  0  0  0  0  0  0  0  0
   17.2824   -7.2999    0.0000 O   0  0  0  0  0  0  0  0  0  0  0  0
   16.0047   -7.9573    0.0000 C   0  0  0  0  0  0  0  0  0  0  0  0
   14.7280   -7.1513    0.0000 C   0  0  0  0  0  0  0  0  0  0  0  0
   13.3564   -7.6064    0.0000 N   0  0  0  0  0  0  0  0  0  0  0  0
   12.5867   -8.8393    0.0000 C   0  0  0  0  0  0  0  0  0  0  0  0
   12.9616  -10.2812    0.0000 C   0  0  0  0  0  0  0  0  0  0  0  0
   12.0921  -11.4265    0.0000 O   0  0  0  0  0  0  0  0  0  0  0  0
   11.9787  -12.8838    0.0000 C   0  0  0  0  0  0  0  0  0  0  0  0
   12.9836  -14.0400    0.0000 C   0  0  0  0  0  0  0  0  0  0  0  0
   14.4453  -14.2411    0.0000 O   0  0  0  0  0  0  0  0  0  0  0  0
   15.8163  -13.9329    0.0000 C   0  0  0  0  0  0  0  0  0  0  0  0
   17.1183  -14.7453    0.0000 C   0  0  0  0  0  0  0  0  0  0  0  0
   19.1988   -5.8565    0.0000 C   0  0  0  0  0  0  0  0  0  0  0  0
   12.3079  -15.4336    0.0000 C   0  0  0  0  0  0  0  0  0  0  0  0
   21.0863   -8.1750    0.0000 C   0  0  0  0  0  0  0  0  0  0  0  0
   10.4679  -13.1650    0.0000 C   0  0  0  0  0  0  0  0  0  0  0  0
   18.0191   -4.8523    0.0000 O   0  0  0  0  0  0  0  0  0  0  0  0
   20.4926   -5.1113    0.0000 O   0  0  0  0  0  0  0  0  0  0  0  0
   22.0548   -9.3634    0.0000 O   0  0  0  0  0  0  0  0  0  0  0  0
   21.8227   -6.8905    0.0000 O   0  0  0  0  0  0  0  0  0  0  0  0
    9.6103  -11.8845    0.0000 O   0  0  0  0  0  0  0  0  0  0  0  0
    9.5840  -14.3584    0.0000 O   0  0  0  0  0  0  0  0  0  0  0  0
   13.4012  -16.5399    0.0000 O   0  0  0  0  0  0  0  0  0  0  0  0
   10.9702  -16.0805    0.0000 O   0  0  0  0  0  0  0  0  0  0  0  0
  1  2  1  0
  2  3  1  0
  3  4  1  0
  4  5  1  0
  5  6  1  0
  6  7  1  0
  7  8  1  0
  8  9  1  0
  9 10  1  0
 10 11  1  0
 11 12  1  0
 12 13  1  0
 13 14  1  0
 14 15  1  0
 15 16  1  0
 16 17  1  0
 17 18  1  0
 18  1  1  0
  6 19  1  6
 15 20  1  6
  5 21  1  1
 14 22  1  1
 19 23  2  0
 19 24  1  0
 21 25  2  0
 21 26  1  0
 22 27  2  0
 22 28  1  0
 20 29  1  0
 20 30  2  0
M  END
>  <Name>  (299) 
A2-18C6-54

>  <logK_La_z=3.0_T=25_I=1.0>  (299) 
9.3

$$$$

     RDKit          2D

 32 32  0  0  1  0  0  0  0  0999 V2000
   11.4505   -9.9378    0.0000 N   0  0  0  0  0  0  0  0  0  0  0  0
   12.6162   -8.9603    0.0000 C   0  0  0  0  0  0  0  0  0  0  0  0
   14.0531   -8.4330    0.0000 C   0  0  0  0  0  0  0  0  0  0  0  0
   15.5916   -8.4250    0.0000 O   0  0  0  0  0  0  0  0  0  0  0  0
   17.0154   -8.9405    0.0000 C   0  0  0  0  0  0  0  0  0  0  0  0
   18.1973   -9.9177    0.0000 C   0  0  0  0  0  0  0  0  0  0  0  0
   18.9643  -11.2450    0.0000 O   0  0  0  0  0  0  0  0  0  0  0  0
   19.2348  -12.7581    0.0000 C   0  0  0  0  0  0  0  0  0  0  0  0
   18.9855  -14.2530    0.0000 C   0  0  0  0  0  0  0  0  0  0  0  0
   18.2192  -15.5801    0.0000 N   0  0  0  0  0  0  0  0  0  0  0  0
   17.0475  -16.5670    0.0000 C   0  0  0  0  0  0  0  0  0  0  0  0
   15.6058  -17.1027    0.0000 C   0  0  0  0  0  0  0  0  0  0  0  0
   14.0814  -17.1076    0.0000 O   0  0  0  0  0  0  0  0  0  0  0  0
   12.6340  -16.5903    0.0000 C   0  0  0  0  0  0  0  0  0  0  0  0
   11.4669  -15.6099    0.0000 C   0  0  0  0  0  0  0  0  0  0  0  0
   10.7001  -14.2821    0.0000 O   0  0  0  0  0  0  0  0  0  0  0  0
   10.4238  -12.7780    0.0000 C   0  0  0  0  0  0  0  0  0  0  0  0
   10.6931  -11.2700    0.0000 C   0  0  0  0  0  0  0  0  0  0  0  0
   19.1782   -8.7497    0.0000 C   0  0  0  0  0  0  0  0  0  0  0  0
   18.6771   -6.0420    0.0000 C   0  0  0  0  0  0  0  0  0  0  0  0
   18.6560   -7.3041    0.0000 O   0  0  0  0  0  0  0  0  0  0  0  0
   20.6913   -9.0102    0.0000 O   0  0  0  0  0  0  0  0  0  0  0  0
   20.2152   -6.0338    0.0000 O   0  0  0  0  0  0  0  0  0  0  0  0
   17.9194   -4.7201    0.0000 O   0  0  0  0  0  0  0  0  0  0  0  0
   19.3956  -16.5658    0.0000 C   0  0  0  0  0  0  0  0  0  0  0  0
   19.1356  -18.0791    0.0000 C   0  0  0  0  0  0  0  0  0  0  0  0
   10.2686   -8.9606    0.0000 C   0  0  0  0  0  0  0  0  0  0  0  0
    8.8317   -9.4879    0.0000 C   0  0  0  0  0  0  0  0  0  0  0  0
    8.5717  -11.0012    0.0000 O   0  0  0  0  0  0  0  0  0  0  0  0
    7.6554   -8.5022    0.0000 O   0  0  0  0  0  0  0  0  0  0  0  0
   17.6990  -18.6060    0.0000 O   0  0  0  0  0  0  0  0  0  0  0  0
   20.3171  -19.0561    0.0000 O   0  0  0  0  0  0  0  0  0  0  0  0
  1  2  1  0
  2  3  1  0
  3  4  1  0
  4  5  1  0
  5  6  1  0
  6  7  1  0
  7  8  1  0
  8  9  1  0
  9 10  1  0
 10 11  1  0
 11 12  1  0
 12 13  1  0
 13 14  1  0
 14 15  1  0
 15 16  1  0
 16 17  1  0
 17 18  1  0
 18  1  1  0
  6 19  1  1
  5 20  1  6
 19 21  2  0
 19 22  1  0
 20 23  2  0
 20 24  1  0
 10 25  1  0
 25 26  1  0
  1 27  1  0
 27 28  1  0
 28 29  2  0
 28 30  1  0
 26 31  2  0
 26 32  1  0
M  END
>  <Name>  (300) 
A2-18C6-55

>  <logK_La_z=3.0_T=25_I=1.0>  (300) 
13.5

$$$$

     RDKit          2D

 21 21  0  0  0  0  0  0  0  0999 V2000
    8.5663  -10.5633    0.0000 C   0  0  0  0  0  0  0  0  0  0  0  0
   10.2013  -12.1589    0.0000 C   0  0  0  0  0  0  0  0  0  0  0  0
   12.5013   -6.0591    0.0000 C   0  0  0  0  0  0  0  0  0  0  0  0
   10.2954   -6.5578    0.0000 C   0  0  0  0  0  0  0  0  0  0  0  0
   15.2437   -9.3640    0.0000 C   0  0  0  0  0  0  0  0  0  0  0  0
   14.4581  -11.4886    0.0000 C   0  0  0  0  0  0  0  0  0  0  0  0
   14.6630   -7.0739    0.0000 N   0  0  0  0  0  0  0  0  0  0  0  0
    8.5663   -8.1427    0.0000 N   0  0  0  0  0  0  0  0  0  0  0  0
   12.4542  -12.7828    0.0000 N   0  0  0  0  0  0  0  0  0  0  0  0
   16.5721   -5.4738    0.0000 C   0  0  0  0  0  0  0  0  0  0  0  0
   18.8758   -6.2822    0.0000 C   0  0  0  0  0  0  0  0  0  0  0  0
    6.2383   -7.2440    0.0000 C   0  0  0  0  0  0  0  0  0  0  0  0
    5.8223   -4.8431    0.0000 C   0  0  0  0  0  0  0  0  0  0  0  0
   12.9324  -15.2383    0.0000 C   0  0  0  0  0  0  0  0  0  0  0  0
   11.1129  -16.8597    0.0000 C   0  0  0  0  0  0  0  0  0  0  0  0
   19.4724   -8.6611    0.0000 O   0  0  0  0  0  0  0  0  0  0  0  0
   20.7112   -4.6336    0.0000 O   0  0  0  0  0  0  0  0  0  0  0  0
    7.6144   -3.1693    0.0000 O   0  0  0  0  0  0  0  0  0  0  0  0
    3.4852   -4.0521    0.0000 O   0  0  0  0  0  0  0  0  0  0  0  0
    8.7454  -16.2236    0.0000 O   0  0  0  0  0  0  0  0  0  0  0  0
   11.6663  -19.2644    0.0000 O   0  0  0  0  0  0  0  0  0  0  0  0
  1  2  1  0
  3  4  1  0
  5  6  1  0
  5  7  1  0
  3  7  1  0
  4  8  1  0
  1  8  1  0
  2  9  1  0
  6  9  1  0
  7 10  1  0
 10 11  1  0
  8 12  1  0
 12 13  1  0
  9 14  1  0
 14 15  1  0
 11 16  1  0
 11 17  2  0
 13 18  1  0
 13 19  2  0
 15 20  2  0
 15 21  1  0
M  END
>  <Name>  (301) 
A3-9C3-5

>  <logK_La_z=3.0_T=25_I=1.0>  (301) 
13.52

$$$$

     RDKit          2D

 21 21  0  0  0  0  0  0  0  0999 V2000
    8.5663  -10.5633    0.0000 C   0  0  0  0  0  0  0  0  0  0  0  0
   10.2013  -12.1589    0.0000 C   0  0  0  0  0  0  0  0  0  0  0  0
   12.5013   -6.0591    0.0000 C   0  0  0  0  0  0  0  0  0  0  0  0
   10.2954   -6.5578    0.0000 C   0  0  0  0  0  0  0  0  0  0  0  0
   15.2437   -9.3640    0.0000 C   0  0  0  0  0  0  0  0  0  0  0  0
   14.4581  -11.4886    0.0000 C   0  0  0  0  0  0  0  0  0  0  0  0
   14.6630   -7.0739    0.0000 N   0  0  0  0  0  0  0  0  0  0  0  0
    8.5663   -8.1427    0.0000 N   0  0  0  0  0  0  0  0  0  0  0  0
   12.4542  -12.7828    0.0000 N   0  0  0  0  0  0  0  0  0  0  0  0
   16.5721   -5.4738    0.0000 C   0  0  0  0  0  0  0  0  0  0  0  0
   18.8758   -6.2822    0.0000 C   0  0  0  0  0  0  0  0  0  0  0  0
    6.2383   -7.2440    0.0000 C   0  0  0  0  0  0  0  0  0  0  0  0
    5.8223   -4.8431    0.0000 C   0  0  0  0  0  0  0  0  0  0  0  0
   12.9324  -15.2383    0.0000 C   0  0  0  0  0  0  0  0  0  0  0  0
   11.1129  -16.8597    0.0000 C   0  0  0  0  0  0  0  0  0  0  0  0
   19.4724   -8.6611    0.0000 O   0  0  0  0  0  0  0  0  0  0  0  0
   20.7112   -4.6336    0.0000 O   0  0  0  0  0  0  0  0  0  0  0  0
    7.6144   -3.1693    0.0000 O   0  0  0  0  0  0  0  0  0  0  0  0
    3.4852   -4.0521    0.0000 O   0  0  0  0  0  0  0  0  0  0  0  0
    8.7454  -16.2236    0.0000 O   0  0  0  0  0  0  0  0  0  0  0  0
   11.6663  -19.2644    0.0000 O   0  0  0  0  0  0  0  0  0  0  0  0
  1  2  1  0
  3  4  1  0
  5  6  1  0
  5  7  1  0
  3  7  1  0
  4  8  1  0
  1  8  1  0
  2  9  1  0
  6  9  1  0
  7 10  1  0
 10 11  1  0
  8 12  1  0
 12 13  1  0
  9 14  1  0
 14 15  1  0
 11 16  1  0
 11 17  2  0
 13 18  1  0
 13 19  2  0
 15 20  2  0
 15 21  1  0
M  END
>  <Name>  (302) 
A3-9C3-5

>  <logK_La_z=3.0_T=25_I=1.0>  (302) 
13.52

$$$$

     RDKit          2D

  6  5  0  0  0  0  0  0  0  0999 V2000
   11.2678   -7.6746    0.0000 C   0  0  0  0  0  0  0  0  0  0  0  0
   11.9714   -8.8934    0.0000 C   0  0  0  0  0  0  0  0  0  0  0  0
   13.3787   -8.8934    0.0000 C   0  0  0  0  0  0  0  0  0  0  0  0
   14.0824   -7.6746    0.0000 O   0  0  0  0  0  0  0  0  0  0  0  0
   14.0824  -10.1121    0.0000 O   0  0  0  0  0  0  0  0  0  0  0  0
   11.2678  -10.1121    0.0000 N   0  0  0  0  0  0  0  0  0  0  0  0
  1  2  1  0
  2  3  1  0
  3  4  1  0
  3  5  2  0
  2  6  1  0
M  END
>  <Name>  (303) 
Alanine

>  <logK_La_z=3.0_T=25_I=1.0>  (303) 
4.5

$$$$

     RDKit          2D

 10  9  0  0  0  0  0  0  0  0999 V2000
    8.7825   -7.4853    0.0000 C   0  0  0  0  0  0  0  0  0  0  0  0
   10.3159   -8.3706    0.0000 C   0  0  0  0  0  0  0  0  0  0  0  0
   11.8492   -7.4853    0.0000 C   0  0  0  0  0  0  0  0  0  0  0  0
   13.3826   -8.3706    0.0000 C   0  0  0  0  0  0  0  0  0  0  0  0
   14.9160   -7.4853    0.0000 O   0  0  0  0  0  0  0  0  0  0  0  0
   16.4493   -8.3706    0.0000 C   0  0  0  0  0  0  0  0  0  0  0  0
   17.9827   -7.4853    0.0000 C   0  0  0  0  0  0  0  0  0  0  0  0
   19.5160   -8.3706    0.0000 C   0  0  0  0  0  0  0  0  0  0  0  0
   13.3826  -10.1412    0.0000 O   0  0  0  0  0  0  0  0  0  0  0  0
   10.3159  -10.1412    0.0000 O   0  0  0  0  0  0  0  0  0  0  0  0
  1  2  1  0
  2  3  1  0
  3  4  1  0
  4  5  1  0
  5  6  1  0
  6  7  1  0
  7  8  2  0
  4  9  2  0
  2 10  2  0
M  END
>  <Name>  (304) 
Allyl%Acetoacetate

>  <logK_La_z=3.0_T=25_I=1.0>  (304) 
8.67

$$$$

     RDKit          2D

 23 25  0  0  1  0  0  0  0  0999 V2000
   13.6686  -10.6109    0.0000 C   0  0  0  0  0  0  0  0  0  0  0  0
   14.9874  -10.4717    0.0000 N   0  0  0  0  0  0  0  0  0  0  0  0
   13.1223   -9.3949    0.0000 N   0  0  0  0  0  0  0  0  0  0  0  0
   15.2633   -9.1782    0.0000 C   0  0  0  0  0  0  0  0  0  0  0  0
   14.1120   -8.5134    0.0000 C   0  0  0  0  0  0  0  0  0  0  0  0
   16.4150   -8.5129    0.0000 C   0  0  0  0  0  0  0  0  0  0  0  0
   16.4155   -7.1826    0.0000 N   0  0  0  0  0  0  0  0  0  0  0  0
   14.1123   -7.1835    0.0000 N   0  0  0  0  0  0  0  0  0  0  0  0
   15.2642   -6.5179    0.0000 C   0  0  0  0  0  0  0  0  0  0  0  0
    9.9713   -8.0466    0.0000 C   0  0  0  0  0  0  0  0  0  0  0  0
    9.6906   -9.3477    0.0000 C   0  0  0  0  0  0  0  0  0  0  0  0
   11.8284   -9.1188    0.0000 C   0  0  0  0  0  0  0  0  0  0  0  0
   10.8338  -10.0078    0.0000 C   0  0  0  0  0  0  0  0  0  0  0  0
    9.0775   -7.0596    0.0000 C   0  0  0  0  0  0  0  0  0  0  0  0
   11.2898   -7.9073    0.0000 O   0  0  0  0  0  0  0  0  0  0  0  0
    7.7822   -7.3355    0.0000 O   0  0  0  0  0  0  0  0  0  0  0  0
   17.5663   -9.1776    0.0000 N   0  0  0  0  0  0  0  0  0  0  0  0
   10.9733  -11.3268    0.0000 O   0  0  0  0  0  0  0  0  0  0  0  0
    8.4789   -9.8867    0.0000 O   0  0  0  0  0  0  0  0  0  0  0  0
    6.8884   -6.3485    0.0000 P   0  0  0  0  0  0  0  0  0  0  0  0
    7.8707   -5.4628    0.0000 O   0  0  0  0  0  0  0  0  0  0  0  0
    5.9062   -7.2347    0.0000 O   0  0  0  0  0  0  0  0  0  0  0  0
    5.9992   -5.3543    0.0000 O   0  0  0  0  0  0  0  0  0  0  0  0
  2  1  2  0
  3  1  1  0
  4  2  1  0
  5  3  1  0
  6  4  2  0
  5  4  1  0
  7  6  1  0
  8  5  2  0
  9  7  2  0
  9  8  1  0
 10 11  1  0
 12 13  1  0
 11 13  1  0
 10 14  1  1
 10 15  1  0
 15 12  1  0
 14 16  1  0
 12  3  1  1
  6 17  1  0
 13 18  1  0
 11 19  1  0
 16 20  1  0
 20 21  1  0
 20 22  1  0
 20 23  2  0
M  END
>  <Name>  (305) 
AMP

>  <logK_La_z=3.0_T=25_I=1.0>  (305) 
3.78

$$$$

     RDKit          2D

  9  8  0  0  0  0  0  0  0  0999 V2000
   10.9579   -6.8899    0.0000 C   0  0  0  0  0  0  0  0  0  0  0  0
   13.6517   -8.4452    0.0000 C   0  0  0  0  0  0  0  0  0  0  0  0
   16.3455   -6.8899    0.0000 C   0  0  0  0  0  0  0  0  0  0  0  0
   19.0393   -8.4452    0.0000 C   0  0  0  0  0  0  0  0  0  0  0  0
    8.2641   -8.4452    0.0000 N   0  0  0  0  0  0  0  0  0  0  0  0
   16.3455   -3.7794    0.0000 N   0  0  0  0  0  0  0  0  0  0  0  0
   10.9579   -3.7794    0.0000 O   0  0  0  0  0  0  0  0  0  0  0  0
   21.7331   -6.8899    0.0000 O   0  0  0  0  0  0  0  0  0  0  0  0
   19.0393  -11.5557    0.0000 O   0  0  0  0  0  0  0  0  0  0  0  0
  1  2  1  0
  2  3  1  0
  3  4  1  0
  1  5  1  0
  3  6  1  0
  1  7  2  0
  4  8  2  0
  4  9  1  0
M  END
>  <Name>  (306) 
Asparagine

>  <logK_La_z=3.0_T=25_I=1.0>  (306) 
3.75

$$$$

     RDKit          2D

 31 33  0  0  1  0  0  0  0  0999 V2000
   14.6483   -9.9926    0.0000 C   0  0  0  0  0  0  0  0  0  0  0  0
   16.7572  -10.6761    0.0000 C   0  0  0  0  0  0  0  0  0  0  0  0
   17.4407  -12.8013    0.0000 C   0  0  0  0  0  0  0  0  0  0  0  0
   19.6692  -12.8013    0.0000 C   0  0  0  0  0  0  0  0  0  0  0  0
   20.3673  -10.6761    0.0000 C   0  0  0  0  0  0  0  0  0  0  0  0
   18.5545   -9.3694    0.0000 O   0  0  0  0  0  0  0  0  0  0  0  0
   16.1331  -14.5987    0.0000 O   0  0  0  0  0  0  0  0  0  0  0  0
   20.9914  -14.5987    0.0000 O   0  0  0  0  0  0  0  0  0  0  0  0
   22.4771   -9.9926    0.0000 N   0  0  0  0  0  0  0  0  0  0  0  0
   24.2899  -11.3001    0.0000 C   0  0  0  0  0  0  0  0  0  0  0  0
   26.0872   -9.9926    0.0000 N   0  0  0  0  0  0  0  0  0  0  0  0
   23.1752   -7.8845    0.0000 C   0  0  0  0  0  0  0  0  0  0  0  0
   25.4038   -7.8845    0.0000 C   0  0  0  0  0  0  0  0  0  0  0  0
   26.5185   -5.9529    0.0000 C   0  0  0  0  0  0  0  0  0  0  0  0
   28.7462   -5.9529    0.0000 N   0  0  0  0  0  0  0  0  0  0  0  0
   25.4038   -4.0213    0.0000 N   0  0  0  0  0  0  0  0  0  0  0  0
   23.1752   -4.0213    0.0000 C   0  0  0  0  0  0  0  0  0  0  0  0
   22.0614   -5.9529    0.0000 N   0  0  0  0  0  0  0  0  0  0  0  0
   12.9990  -11.4783    0.0000 O   0  0  0  0  0  0  0  0  0  0  0  0
   10.8746  -10.7949    0.0000 P   0  0  0  0  0  0  0  0  0  0  0  0
    8.7648  -10.0968    0.0000 O   0  0  0  0  0  0  0  0  0  0  0  0
    7.1009  -11.5980    0.0000 P   0  0  0  0  0  0  0  0  0  0  0  0
    5.4517  -13.0837    0.0000 O   0  0  0  0  0  0  0  0  0  0  0  0
    3.3272  -12.4002    0.0000 P   0  0  0  0  0  0  0  0  0  0  0  0
    4.0107  -10.2749    0.0000 O   0  0  0  0  0  0  0  0  0  0  0  0
    2.6438  -14.5091    0.0000 O   0  0  0  0  0  0  0  0  0  0  0  0
    1.2028  -11.7013    0.0000 O   0  0  0  0  0  0  0  0  0  0  0  0
    5.6152   -9.9332    0.0000 O   0  0  0  0  0  0  0  0  0  0  0  0
    8.5866  -13.2464    0.0000 O   0  0  0  0  0  0  0  0  0  0  0  0
   10.1911  -12.9046    0.0000 O   0  0  0  0  0  0  0  0  0  0  0  0
   11.5727   -8.6868    0.0000 O   0  0  0  0  0  0  0  0  0  0  0  0
  2  1  1  1
  2  3  1  0
  3  4  1  0
  2  6  1  0
  5  6  1  0
  5  4  1  0
  3  7  1  0
  4  8  1  0
  5  9  1  1
  9 10  1  0
 10 11  2  0
  9 12  1  0
 12 13  2  0
 13 11  1  0
 13 14  1  0
 14 15  1  0
 14 16  2  0
 16 17  1  0
 17 18  2  0
 18 12  1  0
  1 19  1  0
 19 20  1  0
 20 21  1  0
 21 22  1  0
 22 23  1  0
 23 24  1  0
 24 25  1  0
 24 26  2  0
 24 27  1  0
 22 28  2  0
 22 29  1  0
 20 30  2  0
 20 31  1  0
M  END
>  <Name>  (307) 
ATP

>  <logK_La_z=3.0_T=25_I=1.0>  (307) 
6.53

$$$$

     RDKit          2D

 12 12  0  0  0  0  0  0  0  0999 V2000
   17.3240   -8.6891    0.0000 C   0  0  0  0  0  0  0  0  0  0  0  0
   17.3240  -10.0191    0.0000 C   0  0  0  0  0  0  0  0  0  0  0  0
   16.1721   -8.0241    0.0000 C   0  0  0  0  0  0  0  0  0  0  0  0
   16.1721  -10.6841    0.0000 C   0  0  0  0  0  0  0  0  0  0  0  0
   15.0203   -8.6891    0.0000 C   0  0  0  0  0  0  0  0  0  0  0  0
   15.0203  -10.0191    0.0000 C   0  0  0  0  0  0  0  0  0  0  0  0
   18.4758   -8.0241    0.0000 C   0  0  0  0  0  0  0  0  0  0  0  0
   17.8108   -6.8723    0.0000 C   0  0  0  0  0  0  0  0  0  0  0  0
   19.6276   -7.3591    0.0000 C   0  0  0  0  0  0  0  0  0  0  0  0
   19.1408   -9.1759    0.0000 O   0  0  0  0  0  0  0  0  0  0  0  0
   19.6276   -6.0291    0.0000 O   0  0  0  0  0  0  0  0  0  0  0  0
   20.7794   -8.0241    0.0000 O   0  0  0  0  0  0  0  0  0  0  0  0
  2  1  2  0
  3  1  1  0
  4  2  1  0
  5  3  2  0
  6  4  2  0
  6  5  1  0
  1  7  1  0
  7  8  1  0
  7  9  1  0
  7 10  1  0
  9 11  2  0
  9 12  1  0
M  END
>  <Name>  (308) 
Atrolactic

>  <logK_La_z=3.0_T=25_I=1.0>  (308) 
2.49

$$$$

     RDKit          2D

 24 24  0  0  0  0  0  0  0  0999 V2000
   12.1578  -13.8878    0.0000 N   0  0  0  0  0  0  0  0  0  0  0  0
   11.5286  -12.7844    0.0000 N   0  0  0  0  0  0  0  0  0  0  0  0
   11.7397  -11.5111    0.0000 C   0  0  0  0  0  0  0  0  0  0  0  0
   10.6700  -10.6731    0.0000 C   0  0  0  0  0  0  0  0  0  0  0  0
   12.8590  -10.8050    0.0000 C   0  0  0  0  0  0  0  0  0  0  0  0
   10.6916   -9.3532    0.0000 C   0  0  0  0  0  0  0  0  0  0  0  0
   14.0519  -11.4391    0.0000 C   0  0  0  0  0  0  0  0  0  0  0  0
    9.4480  -11.2462    0.0000 O   0  0  0  0  0  0  0  0  0  0  0  0
   13.0755   -9.5174    0.0000 O   0  0  0  0  0  0  0  0  0  0  0  0
   16.2060  -11.9850    0.0000 N   0  0  0  0  0  0  0  0  0  0  0  0
   17.5194  -11.9505    0.0000 N   0  0  0  0  0  0  0  0  0  0  0  0
   18.1748  -10.7917    0.0000 C   0  0  0  0  0  0  0  0  0  0  0  0
   19.5037  -10.8364    0.0000 C   0  0  0  0  0  0  0  0  0  0  0  0
   17.5319   -9.6337    0.0000 C   0  0  0  0  0  0  0  0  0  0  0  0
   20.1666  -11.9846    0.0000 C   0  0  0  0  0  0  0  0  0  0  0  0
   18.1914   -8.4788    0.0000 C   0  0  0  0  0  0  0  0  0  0  0  0
   20.1966   -9.7004    0.0000 O   0  0  0  0  0  0  0  0  0  0  0  0
   16.2045   -9.5773    0.0000 O   0  0  0  0  0  0  0  0  0  0  0  0
   15.5127  -13.1100    0.0000 C   0  0  0  0  0  0  0  0  0  0  0  0
   16.1317  -14.2907    0.0000 C   0  0  0  0  0  0  0  0  0  0  0  0
   14.2126  -13.1100    0.0000 C   0  0  0  0  0  0  0  0  0  0  0  0
   15.3922  -15.3971    0.0000 C   0  0  0  0  0  0  0  0  0  0  0  0
   13.4378  -14.1592    0.0000 C   0  0  0  0  0  0  0  0  0  0  0  0
   14.0617  -15.3274    0.0000 C   0  0  0  0  0  0  0  0  0  0  0  0
  1  2  2  0
  2  3  1  0
  3  4  1  0
  3  5  2  0
  4  6  1  0
  5  7  1  0
  4  8  2  0
  5  9  1  0
 10 11  2  0
 11 12  1  0
 12 13  2  0
 12 14  1  0
 13 15  1  0
 14 16  1  0
 13 17  1  0
 14 18  2  0
 20 19  2  0
 21 19  1  0
 22 20  1  0
 23 21  2  0
 24 22  2  0
 24 23  1  0
 10 19  1  0
  1 23  1  0
M  END
>  <Name>  (309) 
Bisazo-diketone-meta-methyl

>  <logK_La_z=3.0_T=25_I=1.0>  (309) 
5.0

$$$$

     RDKit          2D

 34 36  0  0  0  0  0  0  0  0999 V2000
   13.5487  -13.4810    0.0000 N   0  0  0  0  0  0  0  0  0  0  0  0
   12.8054  -12.3763    0.0000 N   0  0  0  0  0  0  0  0  0  0  0  0
   13.2033  -11.0975    0.0000 C   0  0  0  0  0  0  0  0  0  0  0  0
   14.4965  -10.7193    0.0000 C   0  0  0  0  0  0  0  0  0  0  0  0
   12.5914   -9.9290    0.0000 C   0  0  0  0  0  0  0  0  0  0  0  0
   15.7279  -10.3353    0.0000 C   0  0  0  0  0  0  0  0  0  0  0  0
   14.4318  -11.9705    0.0000 O   0  0  0  0  0  0  0  0  0  0  0  0
   13.2243   -8.7630    0.0000 O   0  0  0  0  0  0  0  0  0  0  0  0
   17.6057  -11.3434    0.0000 N   0  0  0  0  0  0  0  0  0  0  0  0
   18.9110  -11.2792    0.0000 N   0  0  0  0  0  0  0  0  0  0  0  0
   19.5268  -10.0750    0.0000 C   0  0  0  0  0  0  0  0  0  0  0  0
   20.8589  -10.1128    0.0000 C   0  0  0  0  0  0  0  0  0  0  0  0
   18.7767   -8.9859    0.0000 C   0  0  0  0  0  0  0  0  0  0  0  0
   17.4437   -9.1441    0.0000 C   0  0  0  0  0  0  0  0  0  0  0  0
   21.5418   -8.9678    0.0000 O   0  0  0  0  0  0  0  0  0  0  0  0
   19.0231   -7.6839    0.0000 O   0  0  0  0  0  0  0  0  0  0  0  0
   16.8645  -12.4447    0.0000 C   0  0  0  0  0  0  0  0  0  0  0  0
   17.5587  -13.6048    0.0000 C   0  0  0  0  0  0  0  0  0  0  0  0
   15.6570  -12.4447    0.0000 C   0  0  0  0  0  0  0  0  0  0  0  0
   16.8800  -14.7498    0.0000 C   0  0  0  0  0  0  0  0  0  0  0  0
   14.8750  -13.5876    0.0000 C   0  0  0  0  0  0  0  0  0  0  0  0
   15.5437  -14.7318    0.0000 C   0  0  0  0  0  0  0  0  0  0  0  0
   11.2491   -9.9814    0.0000 C   0  0  0  0  0  0  0  0  0  0  0  0
   10.3870   -9.0035    0.0000 C   0  0  0  0  0  0  0  0  0  0  0  0
   10.7220  -11.2129    0.0000 C   0  0  0  0  0  0  0  0  0  0  0  0
    9.0767   -9.1088    0.0000 C   0  0  0  0  0  0  0  0  0  0  0  0
    9.4049  -11.3778    0.0000 C   0  0  0  0  0  0  0  0  0  0  0  0
    8.5613  -10.3533    0.0000 C   0  0  0  0  0  0  0  0  0  0  0  0
   21.5234  -11.2653    0.0000 C   0  0  0  0  0  0  0  0  0  0  0  0
   20.9316  -12.4561    0.0000 C   0  0  0  0  0  0  0  0  0  0  0  0
   22.8421  -11.2347    0.0000 C   0  0  0  0  0  0  0  0  0  0  0  0
   21.6614  -13.5679    0.0000 C   0  0  0  0  0  0  0  0  0  0  0  0
   23.5917  -12.3243    0.0000 C   0  0  0  0  0  0  0  0  0  0  0  0
   22.9882  -13.5180    0.0000 C   0  0  0  0  0  0  0  0  0  0  0  0
  1  2  2  0
  2  3  1  0
  3  4  1  0
  3  5  2  0
  4  6  1  0
  4  7  2  0
  5  8  1  0
  9 10  2  0
 10 11  1  0
 11 12  2  0
 11 13  1  0
 13 14  1  0
 12 15  1  0
 13 16  2  0
 18 17  2  0
 19 17  1  0
 20 18  1  0
 21 19  2  0
 22 20  2  0
 22 21  1  0
  9 17  1  0
  1 21  1  0
 24 23  2  0
 25 23  1  0
 26 24  1  0
 27 25  2  0
 28 26  2  0
 28 27  1  0
  5 23  1  0
 30 29  2  0
 31 29  1  0
 32 30  1  0
 33 31  2  0
 34 32  2  0
 34 33  1  0
 12 29  1  0
M  END
>  <Name>  (310) 
Bisazo-diketone-meta-phenyl

>  <logK_La_z=3.0_T=25_I=1.0>  (310) 
4.35

$$$$

     RDKit          2D

 24 24  0  0  0  0  0  0  0  0999 V2000
   14.4620  -13.6534    0.0000 N   0  0  0  0  0  0  0  0  0  0  0  0
   13.1888  -13.6298    0.0000 N   0  0  0  0  0  0  0  0  0  0  0  0
   12.1961  -12.7993    0.0000 C   0  0  0  0  0  0  0  0  0  0  0  0
   10.9346  -13.3146    0.0000 C   0  0  0  0  0  0  0  0  0  0  0  0
    9.7968  -12.6389    0.0000 C   0  0  0  0  0  0  0  0  0  0  0  0
   10.8237  -14.6612    0.0000 O   0  0  0  0  0  0  0  0  0  0  0  0
   17.4623   -9.2144    0.0000 N   0  0  0  0  0  0  0  0  0  0  0  0
   16.8262   -8.0528    0.0000 N   0  0  0  0  0  0  0  0  0  0  0  0
   17.4862   -6.8967    0.0000 C   0  0  0  0  0  0  0  0  0  0  0  0
   16.7833   -5.7646    0.0000 C   0  0  0  0  0  0  0  0  0  0  0  0
   18.8149   -6.8725    0.0000 C   0  0  0  0  0  0  0  0  0  0  0  0
   19.5248   -8.0000    0.0000 C   0  0  0  0  0  0  0  0  0  0  0  0
   17.3715   -4.5727    0.0000 O   0  0  0  0  0  0  0  0  0  0  0  0
   19.4850   -5.7209    0.0000 O   0  0  0  0  0  0  0  0  0  0  0  0
   15.4508   -5.8180    0.0000 C   0  0  0  0  0  0  0  0  0  0  0  0
   15.4613  -10.3600    0.0000 C   0  0  0  0  0  0  0  0  0  0  0  0
   16.7984  -10.3652    0.0000 C   0  0  0  0  0  0  0  0  0  0  0  0
   14.8095  -11.4890    0.0000 C   0  0  0  0  0  0  0  0  0  0  0  0
   17.3819  -11.5605    0.0000 C   0  0  0  0  0  0  0  0  0  0  0  0
   15.3465  -12.6828    0.0000 C   0  0  0  0  0  0  0  0  0  0  0  0
   16.6727  -12.6899    0.0000 C   0  0  0  0  0  0  0  0  0  0  0  0
   12.1509  -11.4716    0.0000 C   0  0  0  0  0  0  0  0  0  0  0  0
   13.3097  -10.7723    0.0000 C   0  0  0  0  0  0  0  0  0  0  0  0
   11.1534  -10.6148    0.0000 O   0  0  0  0  0  0  0  0  0  0  0  0
  1  2  2  0
  2  3  1  0
  3  4  1  0
  4  5  1  0
  4  6  2  0
  7  8  2  0
  8  9  1  0
  9 10  2  0
  9 11  1  0
 11 12  1  0
 10 13  1  0
 11 14  2  0
 10 15  1  0
 17 16  2  0
 18 16  1  0
 19 17  1  0
 20 18  2  0
 21 19  2  0
 21 20  1  0
  7 17  1  0
  1 20  1  0
  3 22  2  0
 22 23  1  0
 22 24  1  0
M  END
>  <Name>  (311) 
Bisazo-diketone-para-methyl

>  <logK_La_z=3.0_T=25_I=1.0>  (311) 
5.75

$$$$

     RDKit          2D

 34 36  0  0  0  0  0  0  0  0999 V2000
   14.3003  -16.4014    0.0000 N   0  0  0  0  0  0  0  0  0  0  0  0
   12.9712  -16.4657    0.0000 N   0  0  0  0  0  0  0  0  0  0  0  0
   12.0867  -15.4558    0.0000 C   0  0  0  0  0  0  0  0  0  0  0  0
   12.4002  -14.1372    0.0000 C   0  0  0  0  0  0  0  0  0  0  0  0
   12.7209  -12.8692    0.0000 C   0  0  0  0  0  0  0  0  0  0  0  0
   13.4293  -14.8512    0.0000 O   0  0  0  0  0  0  0  0  0  0  0  0
   17.0460  -11.8391    0.0000 N   0  0  0  0  0  0  0  0  0  0  0  0
   16.4089  -10.6767    0.0000 N   0  0  0  0  0  0  0  0  0  0  0  0
   17.1453   -9.5446    0.0000 C   0  0  0  0  0  0  0  0  0  0  0  0
   16.4434   -8.4150    0.0000 C   0  0  0  0  0  0  0  0  0  0  0  0
   18.4613   -9.7104    0.0000 C   0  0  0  0  0  0  0  0  0  0  0  0
   18.9734  -10.9601    0.0000 C   0  0  0  0  0  0  0  0  0  0  0  0
   17.0840   -7.2445    0.0000 O   0  0  0  0  0  0  0  0  0  0  0  0
   19.4523   -8.8282    0.0000 O   0  0  0  0  0  0  0  0  0  0  0  0
   15.0695  -13.0248    0.0000 C   0  0  0  0  0  0  0  0  0  0  0  0
   16.4252  -12.9916    0.0000 C   0  0  0  0  0  0  0  0  0  0  0  0
   14.4650  -14.0719    0.0000 C   0  0  0  0  0  0  0  0  0  0  0  0
   17.0742  -14.1540    0.0000 C   0  0  0  0  0  0  0  0  0  0  0  0
   15.0666  -15.3154    0.0000 C   0  0  0  0  0  0  0  0  0  0  0  0
   16.3916  -15.3027    0.0000 C   0  0  0  0  0  0  0  0  0  0  0  0
   10.7692  -15.4490    0.0000 C   0  0  0  0  0  0  0  0  0  0  0  0
   10.0159  -16.5375    0.0000 O   0  0  0  0  0  0  0  0  0  0  0  0
   15.1133   -8.4103    0.0000 C   0  0  0  0  0  0  0  0  0  0  0  0
   14.3662   -9.5099    0.0000 C   0  0  0  0  0  0  0  0  0  0  0  0
   14.4986   -7.2395    0.0000 C   0  0  0  0  0  0  0  0  0  0  0  0
   13.0392   -9.4186    0.0000 C   0  0  0  0  0  0  0  0  0  0  0  0
   13.1804   -7.1263    0.0000 C   0  0  0  0  0  0  0  0  0  0  0  0
   12.4354   -8.2352    0.0000 C   0  0  0  0  0  0  0  0  0  0  0  0
   10.2340  -14.2187    0.0000 C   0  0  0  0  0  0  0  0  0  0  0  0
   10.8508  -13.0677    0.0000 C   0  0  0  0  0  0  0  0  0  0  0  0
    8.8962  -14.1688    0.0000 C   0  0  0  0  0  0  0  0  0  0  0  0
   10.2868  -11.8797    0.0000 C   0  0  0  0  0  0  0  0  0  0  0  0
    8.2769  -12.9928    0.0000 C   0  0  0  0  0  0  0  0  0  0  0  0
    8.9394  -11.8431    0.0000 C   0  0  0  0  0  0  0  0  0  0  0  0
  1  2  2  0
  2  3  1  0
  3  4  1  0
  4  5  1  0
  4  6  2  0
  7  8  2  0
  8  9  1  0
  9 10  2  0
  9 11  1  0
 11 12  1  0
 10 13  1  0
 11 14  2  0
 16 15  2  0
 17 15  1  0
 18 16  1  0
 19 17  2  0
 20 18  2  0
 20 19  1  0
  7 16  1  0
  1 19  1  0
  3 21  1  0
 21 22  1  0
 24 23  2  0
 25 23  1  0
 26 24  1  0
 27 25  2  0
 28 26  2  0
 28 27  1  0
 10 23  1  0
 30 29  2  0
 31 29  1  0
 32 30  1  0
 33 31  2  0
 34 32  2  0
 34 33  1  0
 21 29  1  0
M  END
>  <Name>  (312) 
Bisazo-diketone-para-phenyl

>  <logK_La_z=3.0_T=25_I=1.0>  (312) 
4.8

$$$$

     RDKit          2D

 24 24  0  0  1  0  0  0  0  0999 V2000
   19.7628  -13.5804    0.0000 C   0  0  0  0  0  0  0  0  0  0  0  0
   19.7628  -14.9104    0.0000 C   0  0  0  0  0  0  0  0  0  0  0  0
   18.6110  -12.9154    0.0000 C   0  0  0  0  0  0  0  0  0  0  0  0
   18.6110  -15.5754    0.0000 C   0  0  0  0  0  0  0  0  0  0  0  0
   17.4592  -13.5804    0.0000 C   0  0  0  0  0  0  0  0  0  0  0  0
   17.4592  -14.9104    0.0000 C   0  0  0  0  0  0  0  0  0  0  0  0
   16.3074  -12.9154    0.0000 N   0  0  0  0  0  0  0  0  0  0  0  0
   18.6110  -11.5854    0.0000 N   0  0  0  0  0  0  0  0  0  0  0  0
   19.7628  -10.9204    0.0000 C   0  0  0  0  0  0  0  0  0  0  0  0
   20.9147  -11.5854    0.0000 C   0  0  0  0  0  0  0  0  0  0  0  0
   17.4592  -10.9204    0.0000 C   0  0  0  0  0  0  0  0  0  0  0  0
   17.4592   -9.5904    0.0000 C   0  0  0  0  0  0  0  0  0  0  0  0
   16.3074  -11.5854    0.0000 C   0  0  0  0  0  0  0  0  0  0  0  0
   15.1556  -10.9204    0.0000 C   0  0  0  0  0  0  0  0  0  0  0  0
   15.1556  -13.5804    0.0000 C   0  0  0  0  0  0  0  0  0  0  0  0
   15.1556  -14.9104    0.0000 C   0  0  0  0  0  0  0  0  0  0  0  0
   22.0665  -10.9204    0.0000 O   0  0  0  0  0  0  0  0  0  0  0  0
   20.9147  -12.9154    0.0000 O   0  0  0  0  0  0  0  0  0  0  0  0
   18.6110   -8.9254    0.0000 O   0  0  0  0  0  0  0  0  0  0  0  0
   16.3074   -8.9254    0.0000 O   0  0  0  0  0  0  0  0  0  0  0  0
   15.1556   -9.5904    0.0000 O   0  0  0  0  0  0  0  0  0  0  0  0
   14.0038  -11.5854    0.0000 O   0  0  0  0  0  0  0  0  0  0  0  0
   16.3074  -15.5754    0.0000 O   0  0  0  0  0  0  0  0  0  0  0  0
   14.0038  -15.5754    0.0000 O   0  0  0  0  0  0  0  0  0  0  0  0
  2  1  1  0
  3  1  1  0
  4  2  1  0
  5  3  1  0
  6  4  1  0
  6  5  1  0
  5  7  1  1
  3  8  1  6
  8  9  1  0
  9 10  1  0
  8 11  1  0
 11 12  1  0
  7 13  1  0
 13 14  1  0
  7 15  1  0
 15 16  1  0
 10 17  1  0
 10 18  2  0
 12 19  2  0
 12 20  1  0
 14 21  2  0
 14 22  1  0
 16 23  2  0
 16 24  1  0
M  END
>  <Name>  (313) 
CDTA

>  <logK_La_z=3.0_T=25_I=1.0>  (313) 
17.1

$$$$

     RDKit          2D

 19 20  0  0  0  0  0  0  0  0999 V2000
   14.4620  -10.6560    0.0000 C   0  0  0  0  0  0  0  0  0  0  0  0
   14.4620   -9.3260    0.0000 C   0  0  0  0  0  0  0  0  0  0  0  0
   13.3102  -11.3210    0.0000 C   0  0  0  0  0  0  0  0  0  0  0  0
   13.3102   -8.6610    0.0000 C   0  0  0  0  0  0  0  0  0  0  0  0
   12.1584  -10.6560    0.0000 C   0  0  0  0  0  0  0  0  0  0  0  0
   12.1584   -9.3260    0.0000 C   0  0  0  0  0  0  0  0  0  0  0  0
   15.0030  -11.8710    0.0000 O   0  0  0  0  0  0  0  0  0  0  0  0
   15.9913  -12.7610    0.0000 C   0  0  0  0  0  0  0  0  0  0  0  0
   17.2563  -13.1720    0.0000 C   0  0  0  0  0  0  0  0  0  0  0  0
   18.5790  -13.0330    0.0000 O   0  0  0  0  0  0  0  0  0  0  0  0
   19.7308  -12.3680    0.0000 C   0  0  0  0  0  0  0  0  0  0  0  0
   20.5125  -11.2920    0.0000 C   0  0  0  0  0  0  0  0  0  0  0  0
   20.7891   -9.9910    0.0000 O   0  0  0  0  0  0  0  0  0  0  0  0
   20.5125   -8.6901    0.0000 C   0  0  0  0  0  0  0  0  0  0  0  0
   19.7308   -7.6141    0.0000 C   0  0  0  0  0  0  0  0  0  0  0  0
   18.5790   -6.9491    0.0000 O   0  0  0  0  0  0  0  0  0  0  0  0
   17.2563   -6.8101    0.0000 C   0  0  0  0  0  0  0  0  0  0  0  0
   15.9913   -7.2211    0.0000 C   0  0  0  0  0  0  0  0  0  0  0  0
   15.0030   -8.1110    0.0000 O   0  0  0  0  0  0  0  0  0  0  0  0
  2  1  1  0
  3  1  1  0
  4  2  1  0
  5  3  1  0
  6  4  1  0
  6  5  1  0
  1  7  1  0
  7  8  1  0
  8  9  1  0
  9 10  1  0
 10 11  1  0
 11 12  1  0
 12 13  1  0
 13 14  1  0
 14 15  1  0
 15 16  1  0
 16 17  1  0
 17 18  1  0
 18 19  1  0
 19  2  1  0
M  END
>  <Name>  (314) 
Cy15C5-1

>  <logK_La_z=3.0_T=25_I=1.0>  (314) 
2.49

$$$$

     RDKit          2D

 26 28  0  0  0  0  0  0  0  0999 V2000
   12.1571  -11.6386    0.0000 C   0  0  0  0  0  0  0  0  0  0  0  0
   12.1571  -12.9789    0.0000 C   0  0  0  0  0  0  0  0  0  0  0  0
   11.0016  -10.9800    0.0000 C   0  0  0  0  0  0  0  0  0  0  0  0
   11.0016  -13.6491    0.0000 C   0  0  0  0  0  0  0  0  0  0  0  0
    9.8461  -11.6386    0.0000 C   0  0  0  0  0  0  0  0  0  0  0  0
    9.8461  -12.9789    0.0000 C   0  0  0  0  0  0  0  0  0  0  0  0
   13.3126  -10.9800    0.0000 O   0  0  0  0  0  0  0  0  0  0  0  0
   13.3126   -9.6396    0.0000 C   0  0  0  0  0  0  0  0  0  0  0  0
   14.4680   -8.9810    0.0000 C   0  0  0  0  0  0  0  0  0  0  0  0
   15.6235   -9.6396    0.0000 O   0  0  0  0  0  0  0  0  0  0  0  0
   16.7790   -8.9810    0.0000 C   0  0  0  0  0  0  0  0  0  0  0  0
   17.9344   -9.6396    0.0000 C   0  0  0  0  0  0  0  0  0  0  0  0
   17.9344  -10.9800    0.0000 O   0  0  0  0  0  0  0  0  0  0  0  0
   21.4008  -11.6386    0.0000 C   0  0  0  0  0  0  0  0  0  0  0  0
   21.4008  -12.9789    0.0000 C   0  0  0  0  0  0  0  0  0  0  0  0
   20.2454  -10.9800    0.0000 C   0  0  0  0  0  0  0  0  0  0  0  0
   20.2454  -13.6491    0.0000 C   0  0  0  0  0  0  0  0  0  0  0  0
   19.0899  -11.6386    0.0000 C   0  0  0  0  0  0  0  0  0  0  0  0
   19.0899  -12.9789    0.0000 C   0  0  0  0  0  0  0  0  0  0  0  0
   17.9344  -13.6491    0.0000 O   0  0  0  0  0  0  0  0  0  0  0  0
   17.9344  -14.9779    0.0000 C   0  0  0  0  0  0  0  0  0  0  0  0
   16.7790  -15.6481    0.0000 C   0  0  0  0  0  0  0  0  0  0  0  0
   15.6235  -14.9779    0.0000 O   0  0  0  0  0  0  0  0  0  0  0  0
   14.4680  -15.6481    0.0000 C   0  0  0  0  0  0  0  0  0  0  0  0
   13.3126  -14.9779    0.0000 C   0  0  0  0  0  0  0  0  0  0  0  0
   13.3126  -13.6491    0.0000 O   0  0  0  0  0  0  0  0  0  0  0  0
  2  1  1  0
  3  1  1  0
  4  2  1  0
  5  3  1  0
  6  4  1  0
  6  5  1  0
  1  7  1  0
  7  8  1  0
  8  9  1  0
  9 10  1  0
 10 11  1  0
 11 12  1  0
 12 13  1  0
 15 14  1  0
 16 14  1  0
 17 15  1  0
 18 16  1  0
 19 17  1  0
 19 18  1  0
 13 18  1  0
 19 20  1  0
 20 21  1  0
 21 22  1  0
 22 23  1  0
 23 24  1  0
 24 25  1  0
 25 26  1  0
 26  2  1  0
M  END
>  <Name>  (315) 
Cy2-18C6-3

>  <logK_La_z=3.0_T=25_I=1.0>  (315) 
3.44

$$$$

     RDKit          2D

  7  6  0  0  0  0  0  0  0  0999 V2000
   11.6513  -11.5141    0.0000 C   0  0  0  0  0  0  0  0  0  0  0  0
   13.8187  -10.2627    0.0000 C   0  0  0  0  0  0  0  0  0  0  0  0
   15.9861  -11.5141    0.0000 C   0  0  0  0  0  0  0  0  0  0  0  0
   11.6513  -14.0168    0.0000 S   0  0  0  0  0  0  0  0  0  0  0  0
   13.8187   -7.7600    0.0000 N   0  0  0  0  0  0  0  0  0  0  0  0
   18.1536  -10.2627    0.0000 O   0  0  0  0  0  0  0  0  0  0  0  0
   15.9861  -14.0168    0.0000 O   0  0  0  0  0  0  0  0  0  0  0  0
  1  2  1  0
  2  3  1  0
  1  4  1  0
  2  5  1  0
  3  6  1  0
  3  7  2  0
M  END
>  <Name>  (316) 
Cysteine

>  <logK_La_z=3.0_T=25_I=1.0>  (316) 
4.9

$$$$

     RDKit          2D

 17 17  0  0  0  0  0  0  0  0999 V2000
   12.3850  -11.2864    0.0000 N   0  0  0  0  0  0  0  0  0  0  0  0
   13.3508  -10.0754    0.0000 C   0  0  0  0  0  0  0  0  0  0  0  0
   14.8997  -10.0754    0.0000 C   0  0  0  0  0  0  0  0  0  0  0  0
   15.8655  -11.2864    0.0000 N   0  0  0  0  0  0  0  0  0  0  0  0
   15.5208  -12.7965    0.0000 C   0  0  0  0  0  0  0  0  0  0  0  0
   14.1252  -13.4686    0.0000 P   0  0  0  0  0  0  0  0  0  0  0  0
   12.7297  -12.7965    0.0000 C   0  0  0  0  0  0  0  0  0  0  0  0
   17.3756  -10.9417    0.0000 C   0  0  0  0  0  0  0  0  0  0  0  0
   18.4292  -12.0772    0.0000 C   0  0  0  0  0  0  0  0  0  0  0  0
   10.8749  -10.9417    0.0000 C   0  0  0  0  0  0  0  0  0  0  0  0
    9.8213  -12.0772    0.0000 C   0  0  0  0  0  0  0  0  0  0  0  0
   17.9726  -13.5573    0.0000 O   0  0  0  0  0  0  0  0  0  0  0  0
   19.9393  -11.7325    0.0000 O   0  0  0  0  0  0  0  0  0  0  0  0
   10.2779  -13.5573    0.0000 O   0  0  0  0  0  0  0  0  0  0  0  0
    8.3112  -11.7325    0.0000 O   0  0  0  0  0  0  0  0  0  0  0  0
   13.3508  -14.8100    0.0000 O   0  0  0  0  0  0  0  0  0  0  0  0
   14.8997  -14.8100    0.0000 O   0  0  0  0  0  0  0  0  0  0  0  0
  1  2  1  0
  2  3  1  0
  3  4  1  0
  4  5  1  0
  5  6  1  0
  6  7  1  0
  7  1  1  0
  4  8  1  0
  8  9  1  0
  1 10  1  0
 10 11  1  0
  9 12  2  0
  9 13  1  0
 11 14  2  0
 11 15  1  0
  6 16  2  0
  6 17  1  0
M  END
>  <Name>  (317) 
DEDA-(PO)

>  <logK_La_z=3.0_T=25_I=1.0>  (317) 
10.01

$$$$

     RDKit          2D

 20 20  0  0  0  0  0  0  0  0999 V2000
   15.2313  -15.5641    0.0000 N   0  0  0  0  0  0  0  0  0  0  0  0
   11.7482  -11.5227    0.0000 N   0  0  0  0  0  0  0  0  0  0  0  0
   13.5074  -12.5401    0.0000 C   0  0  0  0  0  0  0  0  0  0  0  0
   13.5074  -14.5679    0.0000 C   0  0  0  0  0  0  0  0  0  0  0  0
   16.9906  -14.5679    0.0000 C   0  0  0  0  0  0  0  0  0  0  0  0
   16.9906  -12.5401    0.0000 C   0  0  0  0  0  0  0  0  0  0  0  0
   18.7428  -11.5227    0.0000 N   0  0  0  0  0  0  0  0  0  0  0  0
   18.7428   -9.4950    0.0000 C   0  0  0  0  0  0  0  0  0  0  0  0
   16.9906   -8.4988    0.0000 C   0  0  0  0  0  0  0  0  0  0  0  0
   15.2313   -9.4950    0.0000 N   0  0  0  0  0  0  0  0  0  0  0  0
   13.5074   -8.4988    0.0000 C   0  0  0  0  0  0  0  0  0  0  0  0
   11.7482   -9.4950    0.0000 C   0  0  0  0  0  0  0  0  0  0  0  0
    9.7288  -11.5210    0.0000 C   0  0  0  0  0  0  0  0  0  0  0  0
   20.7621  -11.5210    0.0000 C   0  0  0  0  0  0  0  0  0  0  0  0
   21.7733  -13.2690    0.0000 C   0  0  0  0  0  0  0  0  0  0  0  0
    8.7206   -9.7714    0.0000 C   0  0  0  0  0  0  0  0  0  0  0  0
    9.7318   -8.0234    0.0000 O   0  0  0  0  0  0  0  0  0  0  0  0
    6.7012   -9.7697    0.0000 O   0  0  0  0  0  0  0  0  0  0  0  0
   23.7926  -13.2673    0.0000 O   0  0  0  0  0  0  0  0  0  0  0  0
   20.7651  -15.0187    0.0000 O   0  0  0  0  0  0  0  0  0  0  0  0
  3  4  1  0
  2  3  1  0
  1  4  1  0
  1  5  1  0
  5  6  1  0
  6  7  1  0
  7  8  1  0
  8  9  1  0
  9 10  1  0
 10 11  1  0
 11 12  1  0
 12  2  1  0
  2 13  1  0
  7 14  1  0
 14 15  1  0
 13 16  1  0
 16 17  2  0
 16 18  1  0
 15 19  2  0
 15 20  1  0
M  END
>  <Name>  (318) 
DO2A

>  <logK_La_z=3.0_T=25_I=1.0>  (318) 
10.94

$$$$

     RDKit          2D

 22 22  0  0  0  0  0  0  0  0999 V2000
   10.8710   -9.4152    0.0000 N   0  0  0  0  0  0  0  0  0  0  0  0
   12.6455   -9.4108    0.0000 C   0  0  0  0  0  0  0  0  0  0  0  0
   13.5334   -7.8729    0.0000 C   0  0  0  0  0  0  0  0  0  0  0  0
   15.3040   -7.8876    0.0000 N   0  0  0  0  0  0  0  0  0  0  0  0
   16.1753   -9.3981    0.0000 C   0  0  0  0  0  0  0  0  0  0  0  0
   15.2873  -10.9361    0.0000 C   0  0  0  0  0  0  0  0  0  0  0  0
   16.1761  -12.4781    0.0000 N   0  0  0  0  0  0  0  0  0  0  0  0
   15.2882  -14.0161    0.0000 C   0  0  0  0  0  0  0  0  0  0  0  0
   13.5176  -14.0013    0.0000 C   0  0  0  0  0  0  0  0  0  0  0  0
   12.6464  -12.4908    0.0000 N   0  0  0  0  0  0  0  0  0  0  0  0
   10.8758  -12.4760    0.0000 C   0  0  0  0  0  0  0  0  0  0  0  0
    9.9831  -10.9531    0.0000 C   0  0  0  0  0  0  0  0  0  0  0  0
    9.3387   -8.5322    0.0000 C   0  0  0  0  0  0  0  0  0  0  0  0
   17.7070  -13.3637    0.0000 C   0  0  0  0  0  0  0  0  0  0  0  0
    7.8078   -9.4178    0.0000 P   0  0  0  0  0  0  0  0  0  0  0  0
   19.2393  -12.4807    0.0000 P   0  0  0  0  0  0  0  0  0  0  0  0
    6.9223   -7.8869    0.0000 O   0  0  0  0  0  0  0  0  0  0  0  0
    8.6934  -10.9486    0.0000 O   0  0  0  0  0  0  0  0  0  0  0  0
    6.2770  -10.3033    0.0000 O   0  0  0  0  0  0  0  0  0  0  0  0
   18.3563  -10.9483    0.0000 O   0  0  0  0  0  0  0  0  0  0  0  0
   20.1223  -14.0130    0.0000 O   0  0  0  0  0  0  0  0  0  0  0  0
   20.7717  -11.5977    0.0000 O   0  0  0  0  0  0  0  0  0  0  0  0
  1  2  1  0
  2  3  1  0
  3  4  1  0
  4  5  1  0
  5  6  1  0
  6  7  1  0
  7  8  1  0
  8  9  1  0
  9 10  1  0
 10 11  1  0
 11 12  1  0
 12  1  1  0
  1 13  1  0
  7 14  1  0
 13 15  1  0
 14 16  1  0
 15 17  1  0
 15 18  1  0
 15 19  2  0
 16 20  1  0
 16 21  1  0
 16 22  2  0
M  END
>  <Name>  (319) 
DO2P

>  <logK_La_z=3.0_T=25_I=1.0>  (319) 
16.0

$$$$

     RDKit          2D

 24 24  0  0  0  0  0  0  0  0999 V2000
   19.1823   -5.7145    0.0000 N   0  0  0  0  0  0  0  0  0  0  0  0
   20.3410   -5.0583    0.0000 C   0  0  0  0  0  0  0  0  0  0  0  0
   21.4764   -5.7145    0.0000 C   0  0  0  0  0  0  0  0  0  0  0  0
   21.4764   -7.0500    0.0000 N   0  0  0  0  0  0  0  0  0  0  0  0
   22.6352   -7.7201    0.0000 C   0  0  0  0  0  0  0  0  0  0  0  0
   22.6352   -9.0557    0.0000 C   0  0  0  0  0  0  0  0  0  0  0  0
   21.4764   -9.7118    0.0000 N   0  0  0  0  0  0  0  0  0  0  0  0
   20.3410   -9.0557    0.0000 C   0  0  0  0  0  0  0  0  0  0  0  0
   19.1823   -9.7118    0.0000 C   0  0  0  0  0  0  0  0  0  0  0  0
   18.0282   -9.0557    0.0000 N   0  0  0  0  0  0  0  0  0  0  0  0
   18.0282   -7.7201    0.0000 C   0  0  0  0  0  0  0  0  0  0  0  0
   19.1823   -7.0500    0.0000 C   0  0  0  0  0  0  0  0  0  0  0  0
   18.5203   -4.5609    0.0000 C   0  0  0  0  0  0  0  0  0  0  0  0
   17.1903   -4.5574    0.0000 C   0  0  0  0  0  0  0  0  0  0  0  0
   22.1386  -10.8653    0.0000 C   0  0  0  0  0  0  0  0  0  0  0  0
   23.4686  -10.8686    0.0000 C   0  0  0  0  0  0  0  0  0  0  0  0
   16.5283   -3.4038    0.0000 O   0  0  0  0  0  0  0  0  0  0  0  0
   16.5222   -5.7074    0.0000 O   0  0  0  0  0  0  0  0  0  0  0  0
   24.1307  -12.0221    0.0000 O   0  0  0  0  0  0  0  0  0  0  0  0
   24.1365   -9.7185    0.0000 O   0  0  0  0  0  0  0  0  0  0  0  0
   16.8780   -9.7234    0.0000 C   0  0  0  0  0  0  0  0  0  0  0  0
   15.7246   -9.0612    0.0000 C   0  0  0  0  0  0  0  0  0  0  0  0
   15.7214   -7.7311    0.0000 O   0  0  0  0  0  0  0  0  0  0  0  0
   14.5743   -9.7289    0.0000 O   0  0  0  0  0  0  0  0  0  0  0  0
  1  2  1  0
  2  3  1  0
  3  4  1  0
  4  5  1  0
  5  6  1  0
  6  7  1  0
  7  8  1  0
  8  9  1  0
  9 10  1  0
 10 11  1  0
 11 12  1  0
 12  1  1  0
  1 13  1  0
 13 14  1  0
  7 15  1  0
 15 16  1  0
 14 17  2  0
 14 18  1  0
 16 19  2  0
 16 20  1  0
 10 21  1  0
 21 22  1  0
 22 23  2  0
 22 24  1  0
M  END
>  <Name>  (320) 
DO3A

>  <logK_La_z=3.0_T=25_I=1.0>  (320) 
18.63

$$$$

     RDKit          2D

 37 38  0  0  0  0  0  0  0  0999 V2000
   13.6741   -8.2529    0.0000 N   0  0  0  0  0  0  0  0  0  0  0  0
   14.9593   -8.5984    0.0000 C   0  0  0  0  0  0  0  0  0  0  0  0
   15.8896   -9.5381    0.0000 C   0  0  0  0  0  0  0  0  0  0  0  0
   16.2351  -10.8139    0.0000 N   0  0  0  0  0  0  0  0  0  0  0  0
   15.8896  -12.0991    0.0000 C   0  0  0  0  0  0  0  0  0  0  0  0
   14.9593  -13.0388    0.0000 C   0  0  0  0  0  0  0  0  0  0  0  0
   13.6741  -13.3843    0.0000 N   0  0  0  0  0  0  0  0  0  0  0  0
   12.3889  -13.0388    0.0000 C   0  0  0  0  0  0  0  0  0  0  0  0
   11.4492  -12.0991    0.0000 C   0  0  0  0  0  0  0  0  0  0  0  0
   11.1037  -10.8139    0.0000 N   0  0  0  0  0  0  0  0  0  0  0  0
   11.4492   -9.5381    0.0000 C   0  0  0  0  0  0  0  0  0  0  0  0
   12.3889   -8.5984    0.0000 C   0  0  0  0  0  0  0  0  0  0  0  0
   13.6741   -6.9233    0.0000 C   0  0  0  0  0  0  0  0  0  0  0  0
   14.8262   -6.2583    0.0000 C   0  0  0  0  0  0  0  0  0  0  0  0
   13.6741  -14.7139    0.0000 C   0  0  0  0  0  0  0  0  0  0  0  0
   14.8262  -15.3784    0.0000 C   0  0  0  0  0  0  0  0  0  0  0  0
   15.9694   -6.9233    0.0000 O   0  0  0  0  0  0  0  0  0  0  0  0
   14.8262   -4.9287    0.0000 O   0  0  0  0  0  0  0  0  0  0  0  0
   15.9694  -14.7139    0.0000 O   0  0  0  0  0  0  0  0  0  0  0  0
   14.8262  -16.7080    0.0000 O   0  0  0  0  0  0  0  0  0  0  0  0
    9.7741  -10.8139    0.0000 C   0  0  0  0  0  0  0  0  0  0  0  0
    9.1091  -11.9660    0.0000 C   0  0  0  0  0  0  0  0  0  0  0  0
    9.7741  -13.1186    0.0000 O   0  0  0  0  0  0  0  0  0  0  0  0
    7.7800  -11.9660    0.0000 O   0  0  0  0  0  0  0  0  0  0  0  0
   17.5647  -10.8139    0.0000 C   0  0  0  0  0  0  0  0  0  0  0  0
   18.2292   -9.6707    0.0000 C   0  0  0  0  0  0  0  0  0  0  0  0
   19.5588   -9.6707    0.0000 N   0  0  0  0  0  0  0  0  0  0  0  0
   20.2238   -8.5186    0.0000 S   0  0  0  0  0  0  0  0  0  0  0  0
   19.0712   -7.8541    0.0000 O   0  0  0  0  0  0  0  0  0  0  0  0
   21.3759   -9.1836    0.0000 O   0  0  0  0  0  0  0  0  0  0  0  0
   20.8884   -7.3665    0.0000 C   0  0  0  0  0  0  0  0  0  0  0  0
   20.2238   -6.2139    0.0000 C   0  0  0  0  0  0  0  0  0  0  0  0
   22.2179   -7.3665    0.0000 C   0  0  0  0  0  0  0  0  0  0  0  0
   20.8884   -5.0618    0.0000 C   0  0  0  0  0  0  0  0  0  0  0  0
   22.8825   -6.2139    0.0000 C   0  0  0  0  0  0  0  0  0  0  0  0
   22.2179   -5.0618    0.0000 C   0  0  0  0  0  0  0  0  0  0  0  0
   22.8825   -3.9097    0.0000 O   0  0  0  0  0  0  0  0  0  0  0  0
  1  2  1  0
  2  3  1  0
  3  4  1  0
  4  5  1  0
  5  6  1  0
  6  7  1  0
  7  8  1  0
  8  9  1  0
  9 10  1  0
 10 11  1  0
 11 12  1  0
 12  1  1  0
  1 13  1  0
 13 14  1  0
  7 15  1  0
 15 16  1  0
 14 17  2  0
 14 18  1  0
 16 19  2  0
 16 20  1  0
 10 21  1  0
 21 22  1  0
 22 23  2  0
 22 24  1  0
  4 25  1  0
 25 26  1  0
 26 27  1  0
 27 28  1  0
 28 29  2  0
 28 30  2  0
 32 31  2  0
 33 31  1  0
 34 32  1  0
 35 33  2  0
 36 34  2  0
 36 35  1  0
 28 31  1  0
 36 37  1  0
M  END
>  <Name>  (321) 
DO3A-SA

>  <logK_La_z=3.0_T=25_I=1.0>  (321) 
21.58

$$$$

     RDKit          3D

 26 30  0  0  0  0  0  0  0  0999 V2000
   16.4176  -11.3689    0.0000 C   0  0  0  0  0  0  0  0  0  0  0  0
   17.0827  -12.5207    0.0000 C   0  0  0  0  0  0  0  0  0  0  0  0
   15.0876  -11.3689    0.0000 C   0  0  0  0  0  0  0  0  0  0  0  0
   16.4176  -13.6726    0.0000 C   0  0  0  0  0  0  0  0  0  0  0  0
   14.4226  -12.5208    0.0000 C   0  0  0  0  0  0  0  0  0  0  0  0
   15.0876  -13.6726    0.0000 C   0  0  0  0  0  0  0  0  0  0  0  0
   17.0826  -10.2172    0.0000 N   0  0  0  0  0  0  0  0  0  0  0  0
   18.4126  -10.2172    0.0000 C   0  0  0  0  0  0  0  0  0  0  0  0
   18.4125  -12.5207    0.0000 C   0  0  0  0  0  0  0  0  0  0  0  0
   19.0775  -11.3690    0.0000 C   0  0  0  0  0  0  0  0  0  0  0  0
   14.4226  -10.2173    0.0000 N   0  0  0  0  0  0  0  0  0  0  0  0
   13.0926  -10.2174    0.0000 C   0  0  0  0  0  0  0  0  0  0  0  0
   13.0927  -12.5208    0.0000 C   0  0  0  0  0  0  0  0  0  0  0  0
   12.4277  -11.3691    0.0000 C   0  0  0  0  0  0  0  0  0  0  0  0
   19.0776   -9.0655    0.0000 C   0  0  0  0  0  0  0  0  0  0  0  0
   18.4126   -7.9138    0.0000 N   0  0  0  0  0  0  0  0  0  0  0  0
   20.4075   -9.0655    0.0000 C   0  0  0  0  0  0  0  0  0  0  0  0
   19.0777   -6.7620    0.0000 C   0  0  0  0  0  0  0  0  0  0  0  0
   21.0725   -7.9138    0.0000 C   0  0  0  0  0  0  0  0  0  0  0  0
   20.4075   -6.7620    0.0000 C   0  0  0  0  0  0  0  0  0  0  0  0
   12.4276   -9.0657    0.0000 C   0  0  0  0  0  0  0  0  0  0  0  0
   11.0978   -9.0656    0.0000 C   0  0  0  0  0  0  0  0  0  0  0  0
   13.0926   -7.9139    0.0000 N   0  0  0  0  0  0  0  0  0  0  0  0
   10.4328   -7.9138    0.0000 C   0  0  0  0  0  0  0  0  0  0  0  0
   12.4277   -6.7622    0.0000 C   0  0  0  0  0  0  0  0  0  0  0  0
   11.0978   -6.7621    0.0000 C   0  0  0  0  0  0  0  0  0  0  0  0
  3  1  2  0
  4  2  2  0
  6  4  1  0
  6  5  2  0
  7  1  1  0
  2  1  1  0
  8  7  2  0
  9  2  1  0
 10  8  1  0
 10  9  2  0
 11  3  1  0
  5  3  1  0
 12 11  2  0
 13  5  1  0
 14 12  1  0
 14 13  2  0
 16 15  2  0
 17 15  1  0
 18 16  1  0
 19 17  2  0
 20 18  2  0
 20 19  1  0
  8 15  1  0
 22 21  2  0
 23 21  1  0
 24 22  1  0
 25 23  2  0
 26 24  2  0
 26 25  1  0
 12 21  1  0
M  END
>  <Name>  (322) 
DPP

>  <logK_La_z=3.0_T=25_I=1.0>  (322) 
4.52

$$$$

     RDKit          2D

 10  9  0  0  0  0  0  0  0  0999 V2000
   17.0551   -7.7150    0.0000 C   0  0  0  0  0  0  0  0  0  0  0  0
   18.6947   -8.6616    0.0000 C   0  0  0  0  0  0  0  0  0  0  0  0
   20.3343   -7.7150    0.0000 N   0  0  0  0  0  0  0  0  0  0  0  0
   15.4154   -8.6616    0.0000 N   0  0  0  0  0  0  0  0  0  0  0  0
   21.9740   -8.6616    0.0000 C   0  0  0  0  0  0  0  0  0  0  0  0
   13.7758   -7.7150    0.0000 C   0  0  0  0  0  0  0  0  0  0  0  0
   23.6136   -7.7150    0.0000 O   0  0  0  0  0  0  0  0  0  0  0  0
   21.9740  -10.5549    0.0000 O   0  0  0  0  0  0  0  0  0  0  0  0
   13.7758   -5.8217    0.0000 O   0  0  0  0  0  0  0  0  0  0  0  0
   12.1362   -8.6616    0.0000 O   0  0  0  0  0  0  0  0  0  0  0  0
  1  2  1  0
  2  3  1  0
  1  4  1  0
  3  5  1  0
  4  6  1  0
  5  7  1  0
  5  8  2  0
  6  9  1  0
  6 10  2  0
M  END
>  <Name>  (323) 
EDDA

>  <logK_La_z=3.0_T=25_I=1.0>  (323) 
7.0

$$$$

     RDKit          2D

 44 46  0  0  0  0  0  0  0  0999 V2000
   17.8476   -9.1886    0.0000 C   0  0  0  0  0  0  0  0  0  0  0  0
   18.1248   -6.2858    0.0000 C   0  0  0  0  0  0  0  0  0  0  0  0
   20.2230  -10.8801    0.0000 C   0  0  0  0  0  0  0  0  0  0  0  0
   19.1296   -7.1565    0.0000 C   0  0  0  0  0  0  0  0  0  0  0  0
   20.2230   -9.5506    0.0000 C   0  0  0  0  0  0  0  0  0  0  0  0
   19.8484   -8.2749    0.0000 C   0  0  0  0  0  0  0  0  0  0  0  0
   19.8484  -12.1558    0.0000 C   0  0  0  0  0  0  0  0  0  0  0  0
   16.9155   -5.7335    0.0000 C   0  0  0  0  0  0  0  0  0  0  0  0
   19.1296  -13.2743    0.0000 N   0  0  0  0  0  0  0  0  0  0  0  0
   15.5995   -5.5443    0.0000 N   0  0  0  0  0  0  0  0  0  0  0  0
   14.2835   -5.7335    0.0000 C   0  0  0  0  0  0  0  0  0  0  0  0
   13.0741   -6.2858    0.0000 C   0  0  0  0  0  0  0  0  0  0  0  0
   14.2835  -14.6972    0.0000 C   0  0  0  0  0  0  0  0  0  0  0  0
   11.3505   -8.2749    0.0000 C   0  0  0  0  0  0  0  0  0  0  0  0
   15.5995  -14.8864    0.0000 N   0  0  0  0  0  0  0  0  0  0  0  0
   12.0693   -7.1565    0.0000 N   0  0  0  0  0  0  0  0  0  0  0  0
   16.9155  -14.6972    0.0000 C   0  0  0  0  0  0  0  0  0  0  0  0
   18.1248  -14.1449    0.0000 C   0  0  0  0  0  0  0  0  0  0  0  0
   20.4351  -13.5259    0.0000 C   0  0  0  0  0  0  0  0  0  0  0  0
   20.8700  -14.7823    0.0000 C   0  0  0  0  0  0  0  0  0  0  0  0
   16.2642  -16.0379    0.0000 C   0  0  0  0  0  0  0  0  0  0  0  0
   15.5995  -17.1893    0.0000 C   0  0  0  0  0  0  0  0  0  0  0  0
   14.9347   -4.3929    0.0000 C   0  0  0  0  0  0  0  0  0  0  0  0
   15.5995   -3.2415    0.0000 C   0  0  0  0  0  0  0  0  0  0  0  0
   10.7638   -6.9048    0.0000 C   0  0  0  0  0  0  0  0  0  0  0  0
   10.3289   -5.6484    0.0000 C   0  0  0  0  0  0  0  0  0  0  0  0
   13.0741  -14.1449    0.0000 C   0  0  0  0  0  0  0  0  0  0  0  0
   13.3513  -11.2421    0.0000 C   0  0  0  0  0  0  0  0  0  0  0  0
   12.0693  -13.2743    0.0000 C   0  0  0  0  0  0  0  0  0  0  0  0
   10.9759   -9.5506    0.0000 C   0  0  0  0  0  0  0  0  0  0  0  0
   11.3505  -12.1558    0.0000 C   0  0  0  0  0  0  0  0  0  0  0  0
   10.9759  -10.8801    0.0000 C   0  0  0  0  0  0  0  0  0  0  0  0
   21.5390   -9.3614    0.0000 O   0  0  0  0  0  0  0  0  0  0  0  0
   21.0578   -7.7226    0.0000 O   0  0  0  0  0  0  0  0  0  0  0  0
   10.1411  -12.7081    0.0000 O   0  0  0  0  0  0  0  0  0  0  0  0
    9.6599  -11.0693    0.0000 O   0  0  0  0  0  0  0  0  0  0  0  0
   16.2642  -18.3407    0.0000 O   0  0  0  0  0  0  0  0  0  0  0  0
   14.2699  -17.1893    0.0000 O   0  0  0  0  0  0  0  0  0  0  0  0
    9.0234   -5.3968    0.0000 O   0  0  0  0  0  0  0  0  0  0  0  0
   11.1996   -4.6436    0.0000 O   0  0  0  0  0  0  0  0  0  0  0  0
   14.9347   -2.0901    0.0000 O   0  0  0  0  0  0  0  0  0  0  0  0
   16.9290   -3.2415    0.0000 O   0  0  0  0  0  0  0  0  0  0  0  0
   22.1755  -15.0339    0.0000 O   0  0  0  0  0  0  0  0  0  0  0  0
   19.9993  -15.7871    0.0000 O   0  0  0  0  0  0  0  0  0  0  0  0
  2  1  1  0
  3  1  1  0
  4  2  2  0
  5  3  2  0
  6  4  1  0
  6  5  1  0
  3  7  1  0
  2  8  1  0
  7  9  1  0
  8 10  1  0
 10 11  1  0
 11 12  1  0
 13 15  1  0
 14 16  1  0
 12 16  1  0
 15 17  1  0
 17 18  1  0
  9 18  1  0
  9 19  1  0
 19 20  1  0
 15 21  1  0
 21 22  1  0
 10 23  1  0
 23 24  1  0
 16 25  1  0
 25 26  1  0
 28 27  1  0
 29 27  2  0
 30 28  1  0
 31 29  1  0
 32 30  2  0
 32 31  1  0
 13 27  1  0
 14 30  1  0
  5 33  1  0
  6 34  2  0
 31 35  2  0
 32 36  1  0
 22 37  2  0
 22 38  1  0
 26 39  2  0
 26 40  1  0
 24 41  2  0
 24 42  1  0
 20 43  2  0
 20 44  1  0
M  CHG  4   9   1  10   1  15   1  16   1
M  END
>  <Name>  (324) 
EDDA-K2

>  <logK_La_z=3.0_T=25_I=1.0>  (324) 
6.26

$$$$

     RDKit          2D

 22 21  0  0  0  0  0  0  0  0999 V2000
   13.6224   -9.8308    0.0000 N   0  0  0  0  0  0  0  0  0  0  0  0
   14.7742  -10.4958    0.0000 C   0  0  0  0  0  0  0  0  0  0  0  0
   15.9260   -9.8308    0.0000 C   0  0  0  0  0  0  0  0  0  0  0  0
   17.0778  -10.4958    0.0000 N   0  0  0  0  0  0  0  0  0  0  0  0
   18.2297   -9.8308    0.0000 C   0  0  0  0  0  0  0  0  0  0  0  0
   18.2297   -8.5008    0.0000 C   0  0  0  0  0  0  0  0  0  0  0  0
   19.3815   -7.8358    0.0000 C   0  0  0  0  0  0  0  0  0  0  0  0
   19.3815   -6.5058    0.0000 C   0  0  0  0  0  0  0  0  0  0  0  0
   19.3815  -10.4958    0.0000 C   0  0  0  0  0  0  0  0  0  0  0  0
   12.4706  -10.4958    0.0000 C   0  0  0  0  0  0  0  0  0  0  0  0
   11.3188   -9.8308    0.0000 C   0  0  0  0  0  0  0  0  0  0  0  0
   12.4706  -11.8258    0.0000 C   0  0  0  0  0  0  0  0  0  0  0  0
   11.3188   -8.5008    0.0000 C   0  0  0  0  0  0  0  0  0  0  0  0
   10.1670   -7.8358    0.0000 C   0  0  0  0  0  0  0  0  0  0  0  0
   20.5333   -5.8408    0.0000 O   0  0  0  0  0  0  0  0  0  0  0  0
   18.2297   -5.8408    0.0000 O   0  0  0  0  0  0  0  0  0  0  0  0
   20.5333   -9.8308    0.0000 O   0  0  0  0  0  0  0  0  0  0  0  0
   19.3815  -11.8258    0.0000 O   0  0  0  0  0  0  0  0  0  0  0  0
   13.6224  -12.4908    0.0000 O   0  0  0  0  0  0  0  0  0  0  0  0
   11.3188  -12.4908    0.0000 O   0  0  0  0  0  0  0  0  0  0  0  0
   10.1670   -6.5058    0.0000 O   0  0  0  0  0  0  0  0  0  0  0  0
    9.0151   -8.5008    0.0000 O   0  0  0  0  0  0  0  0  0  0  0  0
  1  2  1  0
  2  3  1  0
  3  4  1  0
  4  5  1  0
  5  6  1  0
  6  7  1  0
  7  8  1  0
  5  9  1  0
  1 10  1  0
 10 11  1  0
 10 12  1  0
 11 13  1  0
 13 14  1  0
  8 15  2  0
  8 16  1  0
  9 17  2  0
  9 18  1  0
 12 19  2  0
 12 20  1  0
 14 21  2  0
 14 22  1  0
M  END
>  <Name>  (325) 
EDDG

>  <logK_La_z=3.0_T=25_I=1.0>  (325) 
6.76

$$$$

     RDKit          2D

 12 11  0  0  0  0  0  0  0  0999 V2000
   16.2489  -12.2168    0.0000 C   0  0  0  0  0  0  0  0  0  0  0  0
   17.9626  -11.2265    0.0000 C   0  0  0  0  0  0  0  0  0  0  0  0
   19.7037  -12.2168    0.0000 N   0  0  0  0  0  0  0  0  0  0  0  0
   14.5078  -11.2265    0.0000 N   0  0  0  0  0  0  0  0  0  0  0  0
   21.4443  -11.2265    0.0000 C   0  0  0  0  0  0  0  0  0  0  0  0
   12.7672  -12.2168    0.0000 C   0  0  0  0  0  0  0  0  0  0  0  0
   11.0261  -11.2265    0.0000 P   0  0  0  0  0  0  0  0  0  0  0  0
   23.1853  -12.2168    0.0000 P   0  0  0  0  0  0  0  0  0  0  0  0
   22.1809  -13.9579    0.0000 O   0  0  0  0  0  0  0  0  0  0  0  0
   24.1898  -10.4899    0.0000 O   0  0  0  0  0  0  0  0  0  0  0  0
   10.0216  -12.9534    0.0000 O   0  0  0  0  0  0  0  0  0  0  0  0
   12.0306   -9.4854    0.0000 O   0  0  0  0  0  0  0  0  0  0  0  0
  1  2  1  0
  2  3  1  0
  1  4  1  0
  3  5  1  0
  4  6  1  0
  6  7  2  0
  5  8  2  0
  8  9  1  0
  8 10  1  0
  7 11  1  0
  7 12  1  0
M  END
>  <Name>  (326) 
Ethylenebis(iminomethylenephosphonous)

>  <logK_La_z=3.0_T=25_I=1.0>  (326) 
4.16

$$$$

     RDKit          2D

 20 19  0  0  0  0  0  0  0  0999 V2000
   17.0626  -13.1749    0.0000 C   0  0  0  0  0  0  0  0  0  0  0  0
   19.2641  -11.9028    0.0000 C   0  0  0  0  0  0  0  0  0  0  0  0
   21.5007  -13.1749    0.0000 P   0  0  0  0  0  0  0  0  0  0  0  0
   14.8259  -11.9028    0.0000 P   0  0  0  0  0  0  0  0  0  0  0  0
   21.5007  -15.7557    0.0000 C   0  0  0  0  0  0  0  0  0  0  0  0
   23.7369  -17.0459    0.0000 C   0  0  0  0  0  0  0  0  0  0  0  0
   23.7369  -11.9028    0.0000 C   0  0  0  0  0  0  0  0  0  0  0  0
   23.7369   -9.3220    0.0000 C   0  0  0  0  0  0  0  0  0  0  0  0
   14.8259   -9.3220    0.0000 C   0  0  0  0  0  0  0  0  0  0  0  0
   12.5897   -8.0318    0.0000 C   0  0  0  0  0  0  0  0  0  0  0  0
   12.5897  -13.1749    0.0000 C   0  0  0  0  0  0  0  0  0  0  0  0
   12.5897  -15.7557    0.0000 C   0  0  0  0  0  0  0  0  0  0  0  0
   25.9731  -15.7557    0.0000 O   0  0  0  0  0  0  0  0  0  0  0  0
   23.7369  -19.6262    0.0000 O   0  0  0  0  0  0  0  0  0  0  0  0
   21.5007   -8.0318    0.0000 O   0  0  0  0  0  0  0  0  0  0  0  0
   25.9731   -8.0318    0.0000 O   0  0  0  0  0  0  0  0  0  0  0  0
   10.3535   -9.3220    0.0000 O   0  0  0  0  0  0  0  0  0  0  0  0
   12.5897   -5.4515    0.0000 O   0  0  0  0  0  0  0  0  0  0  0  0
   14.8259  -17.0459    0.0000 O   0  0  0  0  0  0  0  0  0  0  0  0
   10.3535  -17.0459    0.0000 O   0  0  0  0  0  0  0  0  0  0  0  0
  1  2  1  0
  2  3  1  0
  1  4  1  0
  3  5  1  0
  5  6  1  0
  3  7  1  0
  7  8  1  0
  4  9  1  0
  9 10  1  0
  4 11  1  0
 11 12  1  0
  6 13  2  0
  6 14  1  0
  8 15  2  0
  8 16  1  0
 10 17  2  0
 10 18  1  0
 12 19  2  0
 12 20  1  0
M  END
>  <Name>  (327) 
Ethylenediphosphinotetraacetic

>  <logK_La_z=3.0_T=25_I=1.0>  (327) 
4.84

$$$$

     RDKit          2D

  1  0  0  0  0  0  0  0  0  0999 V2000
   13.3801   -9.8708    0.0000 F   0  0  0  0  0  0  0  0  0  0  0  0
M  CHG  1   1  -1
M  END
>  <Name>  (328) 
Fluoride

>  <logK_La_z=3.0_T=25_I=1.0>  (328) 
2.66

$$$$

     RDKit          2D

 10  9  0  0  0  0  0  0  0  0999 V2000
   11.1557   -8.5185    0.0000 C   0  0  0  0  0  0  0  0  0  0  0  0
   12.9670   -8.5185    0.0000 C   0  0  0  0  0  0  0  0  0  0  0  0
   13.8727  -10.0872    0.0000 C   0  0  0  0  0  0  0  0  0  0  0  0
   15.6841  -10.0872    0.0000 C   0  0  0  0  0  0  0  0  0  0  0  0
   16.5897  -11.6559    0.0000 C   0  0  0  0  0  0  0  0  0  0  0  0
   10.2500  -10.0872    0.0000 N   0  0  0  0  0  0  0  0  0  0  0  0
   16.5897   -8.5185    0.0000 N   0  0  0  0  0  0  0  0  0  0  0  0
   10.2500   -6.9498    0.0000 O   0  0  0  0  0  0  0  0  0  0  0  0
   18.4011  -11.6559    0.0000 O   0  0  0  0  0  0  0  0  0  0  0  0
   15.6841  -13.2245    0.0000 O   0  0  0  0  0  0  0  0  0  0  0  0
  1  2  1  0
  2  3  1  0
  3  4  1  0
  4  5  1  0
  1  6  1  0
  4  7  1  0
  1  8  2  0
  5  9  1  0
  5 10  2  0
M  END
>  <Name>  (329) 
Glutamine

>  <logK_La_z=3.0_T=25_I=1.0>  (329) 
3.4

$$$$

     RDKit          2D

 33 34  0  0  0  0  0  0  0  0999 V2000
   13.0682   -5.7946    0.0000 N   0  0  0  0  0  0  0  0  0  0  0  0
   14.5459   -6.6478    0.0000 C   0  0  0  0  0  0  0  0  0  0  0  0
   16.0275   -5.7938    0.0000 C   0  0  0  0  0  0  0  0  0  0  0  0
   17.5052   -6.6469    0.0000 N   0  0  0  0  0  0  0  0  0  0  0  0
   17.4910   -8.3481    0.0000 C   0  0  0  0  0  0  0  0  0  0  0  0
   16.0397   -9.1853    0.0000 C   0  0  0  0  0  0  0  0  0  0  0  0
   16.0255  -10.8865    0.0000 N   0  0  0  0  0  0  0  0  0  0  0  0
   14.5622  -11.7442    0.0000 C   0  0  0  0  0  0  0  0  0  0  0  0
   13.0846  -10.8911    0.0000 C   0  0  0  0  0  0  0  0  0  0  0  0
   13.0803   -9.1861    0.0000 N   0  0  0  0  0  0  0  0  0  0  0  0
   11.6026   -8.3330    0.0000 C   0  0  0  0  0  0  0  0  0  0  0  0
   11.6169   -6.6318    0.0000 C   0  0  0  0  0  0  0  0  0  0  0  0
   12.2117   -4.3270    0.0000 C   0  0  0  0  0  0  0  0  0  0  0  0
   11.6064  -10.0316    0.0000 C   0  0  0  0  0  0  0  0  0  0  0  0
   16.8758  -12.3576    0.0000 C   0  0  0  0  0  0  0  0  0  0  0  0
   18.9789   -5.8010    0.0000 C   0  0  0  0  0  0  0  0  0  0  0  0
   20.4483   -6.6544    0.0000 P   0  0  0  0  0  0  0  0  0  0  0  0
   21.3017   -5.1850    0.0000 O   0  0  0  0  0  0  0  0  0  0  0  0
   19.5950   -8.1238    0.0000 O   0  0  0  0  0  0  0  0  0  0  0  0
   21.9178   -7.5078    0.0000 C   0  0  0  0  0  0  0  0  0  0  0  0
   23.3915   -6.6619    0.0000 C   0  0  0  0  0  0  0  0  0  0  0  0
   23.3958   -4.9626    0.0000 C   0  0  0  0  0  0  0  0  0  0  0  0
   24.8609   -7.5152    0.0000 C   0  0  0  0  0  0  0  0  0  0  0  0
   24.8696   -4.1167    0.0000 C   0  0  0  0  0  0  0  0  0  0  0  0
   26.3347   -6.6693    0.0000 C   0  0  0  0  0  0  0  0  0  0  0  0
   26.3390   -4.9701    0.0000 C   0  0  0  0  0  0  0  0  0  0  0  0
   27.8127   -4.1242    0.0000 N   0  0  0  0  0  0  0  0  0  0  0  0
   13.0544   -2.8515    0.0000 O   0  0  0  0  0  0  0  0  0  0  0  0
   10.5125   -4.3349    0.0000 O   0  0  0  0  0  0  0  0  0  0  0  0
   18.5750  -12.3569    0.0000 O   0  0  0  0  0  0  0  0  0  0  0  0
   16.0268  -13.8296    0.0000 O   0  0  0  0  0  0  0  0  0  0  0  0
   10.1372   -9.1778    0.0000 O   0  0  0  0  0  0  0  0  0  0  0  0
   11.6016  -11.7308    0.0000 O   0  0  0  0  0  0  0  0  0  0  0  0
  1  2  1  0
  2  3  1  0
  3  4  1  0
  4  5  1  0
  5  6  1  0
  6  7  1  0
  7  8  1  0
  8  9  1  0
  9 10  1  0
 10 11  1  0
 11 12  1  0
 12  1  1  0
  1 13  1  0
 10 14  1  0
  7 15  1  0
  4 16  1  0
 16 17  1  0
 17 18  2  0
 17 19  1  0
 17 20  1  0
 22 21  2  0
 23 21  1  0
 24 22  1  0
 25 23  2  0
 26 24  2  0
 26 25  1  0
 20 21  1  0
 26 27  1  0
 13 28  2  0
 13 29  1  0
 15 30  2  0
 15 31  1  0
 14 32  1  0
 14 33  2  0
M  END
>  <Name>  (330) 
H4do3apABn

>  <logK_La_z=3.0_T=25_I=1.0>  (330) 
22.4

$$$$

     RDKit          2D

 26 26  0  0  0  0  0  0  0  0999 V2000
    7.9067   -9.3439    0.0000 N   0  0  0  0  0  0  0  0  0  0  0  0
    9.3844  -10.1971    0.0000 C   0  0  0  0  0  0  0  0  0  0  0  0
   10.8660   -9.3431    0.0000 C   0  0  0  0  0  0  0  0  0  0  0  0
   12.3437  -10.1963    0.0000 N   0  0  0  0  0  0  0  0  0  0  0  0
   12.3295  -11.8974    0.0000 C   0  0  0  0  0  0  0  0  0  0  0  0
   10.8782  -12.7346    0.0000 C   0  0  0  0  0  0  0  0  0  0  0  0
   10.8640  -14.4358    0.0000 N   0  0  0  0  0  0  0  0  0  0  0  0
    9.4008  -15.2935    0.0000 C   0  0  0  0  0  0  0  0  0  0  0  0
    7.9231  -14.4404    0.0000 C   0  0  0  0  0  0  0  0  0  0  0  0
    7.9189  -12.7354    0.0000 N   0  0  0  0  0  0  0  0  0  0  0  0
    6.4412  -11.8823    0.0000 C   0  0  0  0  0  0  0  0  0  0  0  0
    6.4554  -10.1811    0.0000 C   0  0  0  0  0  0  0  0  0  0  0  0
    7.0502   -7.8763    0.0000 C   0  0  0  0  0  0  0  0  0  0  0  0
    6.4449  -13.5809    0.0000 C   0  0  0  0  0  0  0  0  0  0  0  0
   11.7143  -15.9070    0.0000 C   0  0  0  0  0  0  0  0  0  0  0  0
   13.8175   -9.3504    0.0000 C   0  0  0  0  0  0  0  0  0  0  0  0
   15.2869  -10.2037    0.0000 P   0  0  0  0  0  0  0  0  0  0  0  0
   16.1403   -8.7343    0.0000 O   0  0  0  0  0  0  0  0  0  0  0  0
   14.4336  -11.6732    0.0000 O   0  0  0  0  0  0  0  0  0  0  0  0
   16.7563  -11.0571    0.0000 O   0  0  0  0  0  0  0  0  0  0  0  0
    7.8929   -6.4008    0.0000 O   0  0  0  0  0  0  0  0  0  0  0  0
    5.3510   -7.8843    0.0000 O   0  0  0  0  0  0  0  0  0  0  0  0
    4.9757  -12.7272    0.0000 O   0  0  0  0  0  0  0  0  0  0  0  0
    6.4402  -15.2802    0.0000 O   0  0  0  0  0  0  0  0  0  0  0  0
   13.4136  -15.9062    0.0000 O   0  0  0  0  0  0  0  0  0  0  0  0
   10.8653  -17.3790    0.0000 O   0  0  0  0  0  0  0  0  0  0  0  0
  1  2  1  0
  2  3  1  0
  3  4  1  0
  4  5  1  0
  5  6  1  0
  6  7  1  0
  7  8  1  0
  8  9  1  0
  9 10  1  0
 10 11  1  0
 11 12  1  0
 12  1  1  0
  1 13  1  0
 10 14  1  0
  7 15  1  0
  4 16  1  0
 16 17  1  0
 17 18  2  0
 17 19  1  0
 17 20  1  0
 13 21  2  0
 13 22  1  0
 14 23  2  0
 14 24  1  0
 15 25  2  0
 15 26  1  0
M  END
>  <Name>  (331) 
H5do3ap

>  <logK_La_z=3.0_T=25_I=1.0>  (331) 
25.5

$$$$

     RDKit          2D

 30 30  0  0  0  0  0  0  0  0999 V2000
   10.9353   -9.8647    0.0000 N   0  0  0  0  0  0  0  0  0  0  0  0
   12.4131  -10.7179    0.0000 C   0  0  0  0  0  0  0  0  0  0  0  0
   13.8947   -9.8639    0.0000 C   0  0  0  0  0  0  0  0  0  0  0  0
   15.3723  -10.7170    0.0000 N   0  0  0  0  0  0  0  0  0  0  0  0
   15.3581  -12.4182    0.0000 C   0  0  0  0  0  0  0  0  0  0  0  0
   13.9068  -13.2554    0.0000 C   0  0  0  0  0  0  0  0  0  0  0  0
   13.8926  -14.9566    0.0000 N   0  0  0  0  0  0  0  0  0  0  0  0
   12.4294  -15.8143    0.0000 C   0  0  0  0  0  0  0  0  0  0  0  0
   10.9517  -14.9612    0.0000 C   0  0  0  0  0  0  0  0  0  0  0  0
   10.9475  -13.2562    0.0000 N   0  0  0  0  0  0  0  0  0  0  0  0
    9.4698  -12.4031    0.0000 C   0  0  0  0  0  0  0  0  0  0  0  0
    9.4841  -10.7019    0.0000 C   0  0  0  0  0  0  0  0  0  0  0  0
   10.0788   -8.3971    0.0000 C   0  0  0  0  0  0  0  0  0  0  0  0
    9.4736  -14.1017    0.0000 C   0  0  0  0  0  0  0  0  0  0  0  0
   14.7429  -16.4278    0.0000 C   0  0  0  0  0  0  0  0  0  0  0  0
   16.8461   -9.8712    0.0000 C   0  0  0  0  0  0  0  0  0  0  0  0
   18.3155  -10.7245    0.0000 P   0  0  0  0  0  0  0  0  0  0  0  0
   19.1689   -9.2551    0.0000 O   0  0  0  0  0  0  0  0  0  0  0  0
   17.4622  -12.1939    0.0000 O   0  0  0  0  0  0  0  0  0  0  0  0
   19.7849  -11.5779    0.0000 C   0  0  0  0  0  0  0  0  0  0  0  0
   19.7806  -13.2771    0.0000 C   0  0  0  0  0  0  0  0  0  0  0  0
   10.9216   -6.9216    0.0000 O   0  0  0  0  0  0  0  0  0  0  0  0
    8.3796   -8.4051    0.0000 O   0  0  0  0  0  0  0  0  0  0  0  0
   16.4422  -16.4270    0.0000 O   0  0  0  0  0  0  0  0  0  0  0  0
   13.8940  -17.8997    0.0000 O   0  0  0  0  0  0  0  0  0  0  0  0
    8.0044  -13.2479    0.0000 O   0  0  0  0  0  0  0  0  0  0  0  0
    9.4688  -15.8009    0.0000 O   0  0  0  0  0  0  0  0  0  0  0  0
   21.2500  -14.1305    0.0000 C   0  0  0  0  0  0  0  0  0  0  0  0
   22.7238  -13.2846    0.0000 O   0  0  0  0  0  0  0  0  0  0  0  0
   21.2457  -15.8297    0.0000 O   0  0  0  0  0  0  0  0  0  0  0  0
  1  2  1  0
  2  3  1  0
  3  4  1  0
  4  5  1  0
  5  6  1  0
  6  7  1  0
  7  8  1  0
  8  9  1  0
  9 10  1  0
 10 11  1  0
 11 12  1  0
 12  1  1  0
  1 13  1  0
 10 14  1  0
  7 15  1  0
  4 16  1  0
 16 17  1  0
 17 18  2  0
 17 19  1  0
 17 20  1  0
 20 21  1  0
 13 22  2  0
 13 23  1  0
 15 24  2  0
 15 25  1  0
 14 26  1  0
 14 27  2  0
 21 28  1  0
 28 29  2  0
 28 30  1  0
M  END
>  <Name>  (332) 
H5do3apPrA

>  <logK_La_z=3.0_T=25_I=1.0>  (332) 
23.1

$$$$

     RDKit          2D

 31 31  0  0  0  0  0  0  0  0999 V2000
   11.5593  -12.9247    0.0000 N   0  0  0  0  0  0  0  0  0  0  0  0
   12.3703  -14.3295    0.0000 C   0  0  0  0  0  0  0  0  0  0  0  0
   13.7178  -15.2485    0.0000 C   0  0  0  0  0  0  0  0  0  0  0  0
   15.3277  -15.4882    0.0000 C   0  0  0  0  0  0  0  0  0  0  0  0
   16.8892  -15.0145    0.0000 N   0  0  0  0  0  0  0  0  0  0  0  0
   18.0802  -13.8990    0.0000 C   0  0  0  0  0  0  0  0  0  0  0  0
   18.6775  -12.3850    0.0000 C   0  0  0  0  0  0  0  0  0  0  0  0
   18.5554  -10.7585    0.0000 N   0  0  0  0  0  0  0  0  0  0  0  0
   17.7443   -9.3537    0.0000 C   0  0  0  0  0  0  0  0  0  0  0  0
   16.3912   -8.4249    0.0000 C   0  0  0  0  0  0  0  0  0  0  0  0
   14.7813   -8.1852    0.0000 C   0  0  0  0  0  0  0  0  0  0  0  0
   13.2255   -8.6687    0.0000 N   0  0  0  0  0  0  0  0  0  0  0  0
   12.0288   -9.7744    0.0000 C   0  0  0  0  0  0  0  0  0  0  0  0
   11.4315  -11.2884    0.0000 C   0  0  0  0  0  0  0  0  0  0  0  0
    9.9976  -13.3991    0.0000 C   0  0  0  0  0  0  0  0  0  0  0  0
    9.6290  -14.9816    0.0000 C   0  0  0  0  0  0  0  0  0  0  0  0
   20.1117  -10.2747    0.0000 C   0  0  0  0  0  0  0  0  0  0  0  0
   20.4746   -8.6824    0.0000 C   0  0  0  0  0  0  0  0  0  0  0  0
   12.4090   -7.2545    0.0000 C   0  0  0  0  0  0  0  0  0  0  0  0
   13.2167   -5.8452    0.0000 C   0  0  0  0  0  0  0  0  0  0  0  0
   17.7057  -16.4286    0.0000 C   0  0  0  0  0  0  0  0  0  0  0  0
   16.8980  -17.8380    0.0000 P   0  0  0  0  0  0  0  0  0  0  0  0
   15.4829  -17.0205    0.0000 O   0  0  0  0  0  0  0  0  0  0  0  0
   18.3072  -18.6464    0.0000 O   0  0  0  0  0  0  0  0  0  0  0  0
   16.0805  -19.2531    0.0000 O   0  0  0  0  0  0  0  0  0  0  0  0
   19.2871   -7.5830    0.0000 O   0  0  0  0  0  0  0  0  0  0  0  0
   22.0407   -8.1930    0.0000 O   0  0  0  0  0  0  0  0  0  0  0  0
   14.8509   -5.8447    0.0000 O   0  0  0  0  0  0  0  0  0  0  0  0
   12.4000   -4.4305    0.0000 O   0  0  0  0  0  0  0  0  0  0  0  0
   10.8222  -16.0908    0.0000 O   0  0  0  0  0  0  0  0  0  0  0  0
    8.0686  -15.4809    0.0000 O   0  0  0  0  0  0  0  0  0  0  0  0
  1  2  1  0
  2  3  1  0
  3  4  1  0
  4  5  1  0
  5  6  1  0
  6  7  1  0
  7  8  1  0
  8  9  1  0
  9 10  1  0
 10 11  1  0
 11 12  1  0
 12 13  1  0
 13 14  1  0
 14  1  1  0
  1 15  1  0
 15 16  1  0
  8 17  1  0
 17 18  1  0
 12 19  1  0
 19 20  1  0
  5 21  1  0
 21 22  1  0
 22 23  2  0
 22 24  1  0
 22 25  1  0
 18 26  1  0
 18 27  2  0
 20 28  1  0
 20 29  2  0
 16 30  1  0
 16 31  2  0
M  END
>  <Name>  (333) 
H5te3a1p

>  <logK_La_z=3.0_T=25_I=1.0>  (333) 
12.07

$$$$

     RDKit          2D

 33 33  0  0  0  0  0  0  0  0999 V2000
    9.5614  -10.2994    0.0000 N   0  0  0  0  0  0  0  0  0  0  0  0
   11.4753   -9.5444    0.0000 C   0  0  0  0  0  0  0  0  0  0  0  0
   12.5188   -7.8769    0.0000 C   0  0  0  0  0  0  0  0  0  0  0  0
   14.1704   -6.8052    0.0000 C   0  0  0  0  0  0  0  0  0  0  0  0
   16.2558   -7.1844    0.0000 N   0  0  0  0  0  0  0  0  0  0  0  0
   16.8577   -9.1660    0.0000 C   0  0  0  0  0  0  0  0  0  0  0  0
   18.6404  -10.1630    0.0000 C   0  0  0  0  0  0  0  0  0  0  0  0
   18.9026  -12.2774    0.0000 N   0  0  0  0  0  0  0  0  0  0  0  0
   17.4464  -13.7451    0.0000 C   0  0  0  0  0  0  0  0  0  0  0  0
   15.3997  -13.7909    0.0000 C   0  0  0  0  0  0  0  0  0  0  0  0
   14.2241  -15.5463    0.0000 C   0  0  0  0  0  0  0  0  0  0  0  0
   12.0542  -15.4020    0.0000 N   0  0  0  0  0  0  0  0  0  0  0  0
   11.4057  -13.4459    0.0000 C   0  0  0  0  0  0  0  0  0  0  0  0
    9.5614  -12.5088    0.0000 C   0  0  0  0  0  0  0  0  0  0  0  0
   17.2757   -5.3507    0.0000 C   0  0  0  0  0  0  0  0  0  0  0  0
   19.3311   -5.0498    0.0000 C   0  0  0  0  0  0  0  0  0  0  0  0
   20.9247  -12.9162    0.0000 C   0  0  0  0  0  0  0  0  0  0  0  0
   11.1180  -17.2542    0.0000 C   0  0  0  0  0  0  0  0  0  0  0  0
    7.5957   -9.6517    0.0000 C   0  0  0  0  0  0  0  0  0  0  0  0
   21.6198  -14.9040    0.0000 P   0  0  0  0  0  0  0  0  0  0  0  0
    9.0872  -17.7672    0.0000 P   0  0  0  0  0  0  0  0  0  0  0  0
    6.7976   -7.7186    0.0000 P   0  0  0  0  0  0  0  0  0  0  0  0
   20.0993   -3.0735    0.0000 O   0  0  0  0  0  0  0  0  0  0  0  0
   20.7073   -6.6723    0.0000 O   0  0  0  0  0  0  0  0  0  0  0  0
   22.5912  -16.8415    0.0000 O   0  0  0  0  0  0  0  0  0  0  0  0
   23.6392  -14.1358    0.0000 O   0  0  0  0  0  0  0  0  0  0  0  0
   19.8133  -16.0390    0.0000 O   0  0  0  0  0  0  0  0  0  0  0  0
    7.0352  -18.4500    0.0000 O   0  0  0  0  0  0  0  0  0  0  0  0
    9.6160  -19.8570    0.0000 O   0  0  0  0  0  0  0  0  0  0  0  0
    8.2671  -15.7953    0.0000 O   0  0  0  0  0  0  0  0  0  0  0  0
    5.8121   -5.7977    0.0000 O   0  0  0  0  0  0  0  0  0  0  0  0
    4.8196   -8.5650    0.0000 O   0  0  0  0  0  0  0  0  0  0  0  0
    8.6701   -6.6732    0.0000 O   0  0  0  0  0  0  0  0  0  0  0  0
  1  2  1  0
  2  3  1  0
  3  4  1  0
  4  5  1  0
  5  6  1  0
  6  7  1  0
  7  8  1  0
  8  9  1  0
  9 10  1  0
 10 11  1  0
 11 12  1  0
 12 13  1  0
 13 14  1  0
 14  1  1  0
  5 15  1  0
 15 16  1  0
  8 17  1  0
 12 18  1  0
  1 19  1  0
 17 20  1  0
 18 21  1  0
 19 22  1  0
 16 23  1  0
 16 24  2  0
 20 25  2  0
 20 26  1  0
 20 27  1  0
 21 28  2  0
 21 29  1  0
 21 30  1  0
 22 31  2  0
 22 32  1  0
 22 33  1  0
M  END
>  <Name>  (334) 
H7te3p1a

>  <logK_La_z=3.0_T=25_I=1.0>  (334) 
17.0

$$$$

     RDKit          2D

 34 34  0  0  0  0  0  0  0  0999 V2000
   11.6034   -9.8159    0.0000 N   0  0  0  0  0  0  0  0  0  0  0  0
   12.8938   -8.4380    0.0000 C   0  0  0  0  0  0  0  0  0  0  0  0
   14.6447   -7.7475    0.0000 C   0  0  0  0  0  0  0  0  0  0  0  0
   16.5373   -7.8950    0.0000 C   0  0  0  0  0  0  0  0  0  0  0  0
   18.1620   -8.8329    0.0000 N   0  0  0  0  0  0  0  0  0  0  0  0
   19.2252  -10.3920    0.0000 C   0  0  0  0  0  0  0  0  0  0  0  0
   19.5026  -12.2536    0.0000 C   0  0  0  0  0  0  0  0  0  0  0  0
   18.9546  -14.0600    0.0000 N   0  0  0  0  0  0  0  0  0  0  0  0
   17.6641  -15.4379    0.0000 C   0  0  0  0  0  0  0  0  0  0  0  0
   15.9132  -16.1284    0.0000 C   0  0  0  0  0  0  0  0  0  0  0  0
   14.0315  -15.9872    0.0000 C   0  0  0  0  0  0  0  0  0  0  0  0
   12.4068  -15.0492    0.0000 N   0  0  0  0  0  0  0  0  0  0  0  0
   11.3328  -13.4839    0.0000 C   0  0  0  0  0  0  0  0  0  0  0  0
   11.0554  -11.6223    0.0000 C   0  0  0  0  0  0  0  0  0  0  0  0
    9.9675   -8.8713    0.0000 C   0  0  0  0  0  0  0  0  0  0  0  0
   19.4413   -7.4481    0.0000 C   0  0  0  0  0  0  0  0  0  0  0  0
   20.5905  -15.0046    0.0000 C   0  0  0  0  0  0  0  0  0  0  0  0
   11.1166  -16.4278    0.0000 C   0  0  0  0  0  0  0  0  0  0  0  0
    9.9613   -6.9924    0.0000 P   0  0  0  0  0  0  0  0  0  0  0  0
   11.6627  -18.2266    0.0000 P   0  0  0  0  0  0  0  0  0  0  0  0
   18.8953   -5.6494    0.0000 P   0  0  0  0  0  0  0  0  0  0  0  0
   20.5966  -16.8835    0.0000 P   0  0  0  0  0  0  0  0  0  0  0  0
   11.8520   -6.9931    0.0000 O   0  0  0  0  0  0  0  0  0  0  0  0
    8.0822   -6.9978    0.0000 O   0  0  0  0  0  0  0  0  0  0  0  0
    9.9625   -5.1020    0.0000 O   0  0  0  0  0  0  0  0  0  0  0  0
   17.0904   -6.2070    0.0000 O   0  0  0  0  0  0  0  0  0  0  0  0
   20.6892   -5.0854    0.0000 O   0  0  0  0  0  0  0  0  0  0  0  0
   18.3376   -3.8445    0.0000 O   0  0  0  0  0  0  0  0  0  0  0  0
   18.7059  -16.8828    0.0000 O   0  0  0  0  0  0  0  0  0  0  0  0
   22.4758  -16.8781    0.0000 O   0  0  0  0  0  0  0  0  0  0  0  0
   20.5955  -18.7739    0.0000 O   0  0  0  0  0  0  0  0  0  0  0  0
   13.4675  -17.6689    0.0000 O   0  0  0  0  0  0  0  0  0  0  0  0
    9.8687  -18.7905    0.0000 O   0  0  0  0  0  0  0  0  0  0  0  0
   12.2204  -20.0314    0.0000 O   0  0  0  0  0  0  0  0  0  0  0  0
  1  2  1  0
  2  3  1  0
  3  4  1  0
  4  5  1  0
  5  6  1  0
  6  7  1  0
  7  8  1  0
  8  9  1  0
  9 10  1  0
 10 11  1  0
 11 12  1  0
 12 13  1  0
 13 14  1  0
 14  1  1  0
  1 15  1  0
  5 16  1  0
  8 17  1  0
 12 18  1  0
 15 19  1  0
 18 20  1  0
 16 21  1  0
 17 22  1  0
 19 23  1  0
 19 24  1  0
 19 25  2  0
 21 26  1  0
 21 27  1  0
 21 28  2  0
 22 29  1  0
 22 30  1  0
 22 31  2  0
 20 32  1  0
 20 33  1  0
 20 34  2  0
M  END
>  <Name>  (335) 
H8tetp

>  <logK_La_z=3.0_T=25_I=1.0>  (335) 
18.02

$$$$

     RDKit          2D

 17 17  0  0  0  0  0  0  0  0999 V2000
   19.4786  -12.6150    0.0000 C   0  0  0  0  0  0  0  0  0  0  0  0
   19.4786  -13.9450    0.0000 C   0  0  0  0  0  0  0  0  0  0  0  0
   18.3268  -11.9500    0.0000 C   0  0  0  0  0  0  0  0  0  0  0  0
   18.3268  -14.6100    0.0000 C   0  0  0  0  0  0  0  0  0  0  0  0
   17.1750  -12.6150    0.0000 C   0  0  0  0  0  0  0  0  0  0  0  0
   17.1750  -13.9450    0.0000 C   0  0  0  0  0  0  0  0  0  0  0  0
   16.0232  -11.9500    0.0000 C   0  0  0  0  0  0  0  0  0  0  0  0
   18.3268  -10.6200    0.0000 O   0  0  0  0  0  0  0  0  0  0  0  0
   14.8713  -12.6150    0.0000 N   0  0  0  0  0  0  0  0  0  0  0  0
   13.7195  -11.9500    0.0000 C   0  0  0  0  0  0  0  0  0  0  0  0
   13.7195  -10.6200    0.0000 C   0  0  0  0  0  0  0  0  0  0  0  0
   14.8713  -13.9450    0.0000 C   0  0  0  0  0  0  0  0  0  0  0  0
   13.7195  -14.6100    0.0000 C   0  0  0  0  0  0  0  0  0  0  0  0
   14.8713   -9.9550    0.0000 O   0  0  0  0  0  0  0  0  0  0  0  0
   12.5677   -9.9550    0.0000 O   0  0  0  0  0  0  0  0  0  0  0  0
   12.5677  -13.9450    0.0000 O   0  0  0  0  0  0  0  0  0  0  0  0
   13.7195  -15.9400    0.0000 O   0  0  0  0  0  0  0  0  0  0  0  0
  2  1  2  0
  3  1  1  0
  4  2  1  0
  5  3  2  0
  6  4  2  0
  6  5  1  0
  5  7  1  0
  3  8  1  0
  7  9  1  0
  9 10  1  0
 10 11  1  0
  9 12  1  0
 12 13  1  0
 11 14  2  0
 11 15  1  0
 13 16  2  0
 13 17  1  0
M  END
>  <Name>  (336) 
HBIDA

>  <logK_La_z=3.0_T=25_I=1.0>  (336) 
11.65

$$$$

     RDKit          2D

  8  7  0  0  0  0  0  0  0  0999 V2000
    8.5433   -9.3339    0.0000 C   0  0  0  0  0  0  0  0  0  0  0  0
   10.6710   -8.1055    0.0000 C   0  0  0  0  0  0  0  0  0  0  0  0
   12.7987   -9.3339    0.0000 C   0  0  0  0  0  0  0  0  0  0  0  0
   14.9264   -8.1055    0.0000 C   0  0  0  0  0  0  0  0  0  0  0  0
   17.0542   -9.3339    0.0000 C   0  0  0  0  0  0  0  0  0  0  0  0
   19.1819   -8.1055    0.0000 C   0  0  0  0  0  0  0  0  0  0  0  0
   19.1819   -5.6486    0.0000 O   0  0  0  0  0  0  0  0  0  0  0  0
   21.3096   -9.3339    0.0000 O   0  0  0  0  0  0  0  0  0  0  0  0
  1  2  1  0
  2  3  1  0
  3  4  1  0
  4  5  1  0
  5  6  1  0
  6  7  1  0
  6  8  2  0
M  END
>  <Name>  (337) 
Hexanoic

>  <logK_La_z=3.0_T=25_I=1.0>  (337) 
2.3

$$$$

     RDKit          2D

 11 10  0  0  0  0  0  0  0  0999 V2000
   19.5847  -15.6322    0.0000 N   0  0  0  0  0  0  0  0  0  0  0  0
   21.0908  -13.0236    0.0000 C   0  0  0  0  0  0  0  0  0  0  0  0
   21.0908  -18.2408    0.0000 C   0  0  0  0  0  0  0  0  0  0  0  0
   19.5847  -10.4150    0.0000 P   0  0  0  0  0  0  0  0  0  0  0  0
   19.5847  -20.8493    0.0000 P   0  0  0  0  0  0  0  0  0  0  0  0
   18.0787   -7.8064    0.0000 O   0  0  0  0  0  0  0  0  0  0  0  0
   22.1933   -8.9090    0.0000 O   0  0  0  0  0  0  0  0  0  0  0  0
   16.9761  -11.9211    0.0000 O   0  0  0  0  0  0  0  0  0  0  0  0
   22.1933  -22.3554    0.0000 O   0  0  0  0  0  0  0  0  0  0  0  0
   16.9761  -19.3433    0.0000 O   0  0  0  0  0  0  0  0  0  0  0  0
   18.0787  -23.4579    0.0000 O   0  0  0  0  0  0  0  0  0  0  0  0
  1  2  1  0
  1  3  1  0
  2  4  1  0
  3  5  1  0
  4  6  1  0
  4  7  2  0
  4  8  1  0
  5  9  1  0
  5 10  1  0
  5 11  2  0
M  END
>  <Name>  (338) 
Iminobis(methylenephosphonic%acid)

>  <logK_La_z=3.0_T=25_I=1.0>  (338) 
9.24

$$$$

     RDKit          2D

 23 23  0  0  0  0  0  0  0  0999 V2000
   10.6038  -12.9664    0.0000 N   0  0  0  0  0  0  0  0  0  0  0  0
   10.7526  -11.3546    0.0000 C   0  0  0  0  0  0  0  0  0  0  0  0
   12.3001  -10.9563    0.0000 C   0  0  0  0  0  0  0  0  0  0  0  0
   12.4925   -9.3356    0.0000 O   0  0  0  0  0  0  0  0  0  0  0  0
   14.1455   -8.9656    0.0000 C   0  0  0  0  0  0  0  0  0  0  0  0
   14.9714  -10.3960    0.0000 C   0  0  0  0  0  0  0  0  0  0  0  0
   16.5914  -10.0532    0.0000 O   0  0  0  0  0  0  0  0  0  0  0  0
   17.4172  -11.4836    0.0000 C   0  0  0  0  0  0  0  0  0  0  0  0
   16.3471  -12.7507    0.0000 C   0  0  0  0  0  0  0  0  0  0  0  0
   17.1249  -14.1683    0.0000 N   0  0  0  0  0  0  0  0  0  0  0  0
   16.0372  -15.4050    0.0000 C   0  0  0  0  0  0  0  0  0  0  0  0
   14.5183  -14.7562    0.0000 C   0  0  0  0  0  0  0  0  0  0  0  0
   13.3884  -15.9198    0.0000 O   0  0  0  0  0  0  0  0  0  0  0  0
   11.9469  -15.2506    0.0000 C   0  0  0  0  0  0  0  0  0  0  0  0
   12.0740  -13.6433    0.0000 C   0  0  0  0  0  0  0  0  0  0  0  0
    8.9844  -13.1886    0.0000 C   0  0  0  0  0  0  0  0  0  0  0  0
    7.9822  -11.8974    0.0000 C   0  0  0  0  0  0  0  0  0  0  0  0
   18.5607  -14.9495    0.0000 C   0  0  0  0  0  0  0  0  0  0  0  0
   19.9551  -14.0968    0.0000 C   0  0  0  0  0  0  0  0  0  0  0  0
   19.9138  -12.4628    0.0000 O   0  0  0  0  0  0  0  0  0  0  0  0
   21.3909  -14.8780    0.0000 O   0  0  0  0  0  0  0  0  0  0  0  0
    8.5994  -10.3838    0.0000 O   0  0  0  0  0  0  0  0  0  0  0  0
    6.3629  -12.1196    0.0000 O   0  0  0  0  0  0  0  0  0  0  0  0
  1  2  1  0
  2  3  1  0
  3  4  1  0
  4  5  1  0
  5  6  1  0
  6  7  1  0
  7  8  1  0
  8  9  1  0
  9 10  1  0
 10 11  1  0
 11 12  1  0
 12 13  1  0
 13 14  1  0
 14 15  1  0
 15  1  1  0
  1 16  1  0
 16 17  1  0
 10 18  1  0
 18 19  1  0
 19 20  1  0
 19 21  2  0
 17 22  1  0
 17 23  2  0
M  END
>  <Name>  (339) 
K21DA

>  <logK_La_z=3.0_T=25_I=1.0>  (339) 
10.11

$$$$

     RDKit          2D

 26 26  0  0  0  0  0  0  0  0999 V2000
   10.6977   -9.1423    0.0000 N   0  0  0  0  0  0  0  0  0  0  0  0
   11.9830   -8.4123    0.0000 C   0  0  0  0  0  0  0  0  0  0  0  0
   11.9726   -6.9342    0.0000 C   0  0  0  0  0  0  0  0  0  0  0  0
   13.2579   -6.2042    0.0000 O   0  0  0  0  0  0  0  0  0  0  0  0
   14.5272   -6.9370    0.0000 C   0  0  0  0  0  0  0  0  0  0  0  0
   15.7927   -6.1956    0.0000 C   0  0  0  0  0  0  0  0  0  0  0  0
   17.0686   -6.9322    0.0000 O   0  0  0  0  0  0  0  0  0  0  0  0
   17.0592   -8.3989    0.0000 C   0  0  0  0  0  0  0  0  0  0  0  0
   18.3484   -9.1432    0.0000 C   0  0  0  0  0  0  0  0  0  0  0  0
   18.3390  -10.6098    0.0000 N   0  0  0  0  0  0  0  0  0  0  0  0
   17.0735  -11.3513    0.0000 C   0  0  0  0  0  0  0  0  0  0  0  0
   17.0641  -12.8179    0.0000 C   0  0  0  0  0  0  0  0  0  0  0  0
   15.8063  -13.5461    0.0000 O   0  0  0  0  0  0  0  0  0  0  0  0
   14.5172  -12.8018    0.0000 C   0  0  0  0  0  0  0  0  0  0  0  0
   13.2517  -13.5433    0.0000 C   0  0  0  0  0  0  0  0  0  0  0  0
   11.9758  -12.8066    0.0000 O   0  0  0  0  0  0  0  0  0  0  0  0
   11.9851  -11.3400    0.0000 C   0  0  0  0  0  0  0  0  0  0  0  0
   10.7158  -10.6071    0.0000 C   0  0  0  0  0  0  0  0  0  0  0  0
    9.2531   -8.8662    0.0000 C   0  0  0  0  0  0  0  0  0  0  0  0
    8.2916   -9.9792    0.0000 C   0  0  0  0  0  0  0  0  0  0  0  0
   19.7831  -10.8886    0.0000 C   0  0  0  0  0  0  0  0  0  0  0  0
   20.2638  -12.2786    0.0000 C   0  0  0  0  0  0  0  0  0  0  0  0
    6.8469   -9.7032    0.0000 O   0  0  0  0  0  0  0  0  0  0  0  0
    8.7749  -11.3684    0.0000 O   0  0  0  0  0  0  0  0  0  0  0  0
   21.7080  -12.5573    0.0000 O   0  0  0  0  0  0  0  0  0  0  0  0
   19.3004  -13.3899    0.0000 O   0  0  0  0  0  0  0  0  0  0  0  0
  1  2  1  0
  2  3  1  0
  3  4  1  0
  4  5  1  0
  5  6  1  0
  6  7  1  0
  7  8  1  0
  8  9  1  0
  9 10  1  0
 10 11  1  0
 11 12  1  0
 12 13  1  0
 13 14  1  0
 14 15  1  0
 15 16  1  0
 16 17  1  0
 17 18  1  0
 18  1  1  0
  1 19  1  0
 19 20  1  0
 10 21  1  0
 21 22  1  0
 20 23  2  0
 20 24  1  0
 22 25  2  0
 22 26  1  0
M  END
>  <Name>  (340) 
K22DA

>  <logK_La_z=3.0_T=25_I=1.0>  (340) 
12.21

$$$$

     RDKit          2D

 28 28  0  0  0  0  0  0  0  0999 V2000
   12.3642  -10.1678    0.0000 N   0  0  0  0  0  0  0  0  0  0  0  0
   13.6495   -9.4378    0.0000 C   0  0  0  0  0  0  0  0  0  0  0  0
   13.6391   -7.9597    0.0000 C   0  0  0  0  0  0  0  0  0  0  0  0
   14.9244   -7.2297    0.0000 O   0  0  0  0  0  0  0  0  0  0  0  0
   16.1937   -7.9626    0.0000 C   0  0  0  0  0  0  0  0  0  0  0  0
   17.4591   -7.2211    0.0000 C   0  0  0  0  0  0  0  0  0  0  0  0
   18.7351   -7.9578    0.0000 O   0  0  0  0  0  0  0  0  0  0  0  0
   18.7257   -9.4244    0.0000 C   0  0  0  0  0  0  0  0  0  0  0  0
   20.0148  -10.1687    0.0000 C   0  0  0  0  0  0  0  0  0  0  0  0
   20.0055  -11.6354    0.0000 N   0  0  0  0  0  0  0  0  0  0  0  0
   18.7400  -12.3768    0.0000 C   0  0  0  0  0  0  0  0  0  0  0  0
   18.7307  -13.8434    0.0000 C   0  0  0  0  0  0  0  0  0  0  0  0
   17.4728  -14.5716    0.0000 O   0  0  0  0  0  0  0  0  0  0  0  0
   16.1837  -13.8274    0.0000 C   0  0  0  0  0  0  0  0  0  0  0  0
   14.9182  -14.5688    0.0000 C   0  0  0  0  0  0  0  0  0  0  0  0
   13.6423  -13.8322    0.0000 O   0  0  0  0  0  0  0  0  0  0  0  0
   13.6516  -12.3655    0.0000 C   0  0  0  0  0  0  0  0  0  0  0  0
   12.3823  -11.6327    0.0000 C   0  0  0  0  0  0  0  0  0  0  0  0
   10.9196   -9.8917    0.0000 C   0  0  0  0  0  0  0  0  0  0  0  0
    9.9581  -11.0048    0.0000 C   0  0  0  0  0  0  0  0  0  0  0  0
   21.4496  -11.9141    0.0000 C   0  0  0  0  0  0  0  0  0  0  0  0
   21.9304  -13.3041    0.0000 C   0  0  0  0  0  0  0  0  0  0  0  0
    8.5135  -10.7287    0.0000 O   0  0  0  0  0  0  0  0  0  0  0  0
   10.4414  -12.3939    0.0000 O   0  0  0  0  0  0  0  0  0  0  0  0
   23.3745  -13.5829    0.0000 O   0  0  0  0  0  0  0  0  0  0  0  0
   20.9669  -14.4154    0.0000 O   0  0  0  0  0  0  0  0  0  0  0  0
   10.4363   -8.5025    0.0000 C   0  0  0  0  0  0  0  0  0  0  0  0
   22.4131  -10.8028    0.0000 C   0  0  0  0  0  0  0  0  0  0  0  0
  1  2  1  0
  2  3  1  0
  3  4  1  0
  4  5  1  0
  5  6  1  0
  6  7  1  0
  7  8  1  0
  8  9  1  0
  9 10  1  0
 10 11  1  0
 11 12  1  0
 12 13  1  0
 13 14  1  0
 14 15  1  0
 15 16  1  0
 16 17  1  0
 17 18  1  0
 18  1  1  0
  1 19  1  0
 19 20  1  0
 10 21  1  0
 21 22  1  0
 20 23  2  0
 20 24  1  0
 22 25  2  0
 22 26  1  0
 19 27  1  0
 21 28  1  0
M  END
>  <Name>  (341) 
K22DAP

>  <logK_La_z=3.0_T=25_I=1.0>  (341) 
11.14

$$$$

     RDKit          2D

 28 28  0  0  0  0  0  0  0  0999 V2000
   10.7819   -8.7950    0.0000 N   0  0  0  0  0  0  0  0  0  0  0  0
   12.3587   -7.8994    0.0000 C   0  0  0  0  0  0  0  0  0  0  0  0
   12.3459   -6.0861    0.0000 C   0  0  0  0  0  0  0  0  0  0  0  0
   13.9227   -5.1905    0.0000 O   0  0  0  0  0  0  0  0  0  0  0  0
   15.4799   -6.0896    0.0000 C   0  0  0  0  0  0  0  0  0  0  0  0
   17.0324   -5.1800    0.0000 C   0  0  0  0  0  0  0  0  0  0  0  0
   18.5977   -6.0837    0.0000 O   0  0  0  0  0  0  0  0  0  0  0  0
   18.5862   -7.8830    0.0000 C   0  0  0  0  0  0  0  0  0  0  0  0
   20.1677   -8.7961    0.0000 C   0  0  0  0  0  0  0  0  0  0  0  0
   20.1562  -10.5954    0.0000 N   0  0  0  0  0  0  0  0  0  0  0  0
   18.6038  -11.5050    0.0000 C   0  0  0  0  0  0  0  0  0  0  0  0
   18.5923  -13.3043    0.0000 C   0  0  0  0  0  0  0  0  0  0  0  0
   17.0492  -14.1976    0.0000 O   0  0  0  0  0  0  0  0  0  0  0  0
   15.4676  -13.2845    0.0000 C   0  0  0  0  0  0  0  0  0  0  0  0
   13.9151  -14.1941    0.0000 C   0  0  0  0  0  0  0  0  0  0  0  0
   12.3498  -13.2904    0.0000 O   0  0  0  0  0  0  0  0  0  0  0  0
   12.3613  -11.4911    0.0000 C   0  0  0  0  0  0  0  0  0  0  0  0
   10.8041  -10.5921    0.0000 C   0  0  0  0  0  0  0  0  0  0  0  0
    9.0096   -8.4562    0.0000 C   0  0  0  0  0  0  0  0  0  0  0  0
    7.8301   -9.8218    0.0000 C   0  0  0  0  0  0  0  0  0  0  0  0
    6.0578   -9.4831    0.0000 C   0  0  0  0  0  0  0  0  0  0  0  0
   21.9279  -10.9373    0.0000 C   0  0  0  0  0  0  0  0  0  0  0  0
   22.5176  -12.6426    0.0000 C   0  0  0  0  0  0  0  0  0  0  0  0
   24.2894  -12.9846    0.0000 C   0  0  0  0  0  0  0  0  0  0  0  0
    5.4649   -7.7788    0.0000 O   0  0  0  0  0  0  0  0  0  0  0  0
    4.8783  -10.8486    0.0000 O   0  0  0  0  0  0  0  0  0  0  0  0
   25.4713  -11.6212    0.0000 O   0  0  0  0  0  0  0  0  0  0  0  0
   24.8791  -14.6899    0.0000 O   0  0  0  0  0  0  0  0  0  0  0  0
  1  2  1  0
  2  3  1  0
  3  4  1  0
  4  5  1  0
  5  6  1  0
  6  7  1  0
  7  8  1  0
  8  9  1  0
  9 10  1  0
 10 11  1  0
 11 12  1  0
 12 13  1  0
 13 14  1  0
 14 15  1  0
 15 16  1  0
 16 17  1  0
 17 18  1  0
 18  1  1  0
  1 19  1  0
 19 20  1  0
 20 21  1  0
 10 22  1  0
 22 23  1  0
 23 24  1  0
 21 25  2  0
 21 26  1  0
 24 27  2  0
 24 28  1  0
M  END
>  <Name>  (342) 
K22DP

>  <logK_La_z=3.0_T=25_I=1.0>  (342) 
6.18

$$$$

     RDKit          2D

 22 22  0  0  0  0  0  0  0  0999 V2000
    9.5951  -14.3194    0.0000 C   0  0  0  0  0  0  0  0  0  0  0  0
   11.2972  -14.7755    0.0000 C   0  0  0  0  0  0  0  0  0  0  0  0
    8.3586   -9.6857    0.0000 C   0  0  0  0  0  0  0  0  0  0  0  0
    7.9025  -11.3878    0.0000 C   0  0  0  0  0  0  0  0  0  0  0  0
   14.6849  -11.3808    0.0000 C   0  0  0  0  0  0  0  0  0  0  0  0
   14.2288  -13.0829    0.0000 C   0  0  0  0  0  0  0  0  0  0  0  0
   11.2902   -7.9931    0.0000 C   0  0  0  0  0  0  0  0  0  0  0  0
   12.9923   -8.4492    0.0000 C   0  0  0  0  0  0  0  0  0  0  0  0
   14.2294   -9.6754    0.0000 N   0  0  0  0  0  0  0  0  0  0  0  0
    9.6057   -8.4365    0.0000 N   0  0  0  0  0  0  0  0  0  0  0  0
    8.3459  -13.0723    0.0000 O   0  0  0  0  0  0  0  0  0  0  0  0
   13.0026  -14.3201    0.0000 O   0  0  0  0  0  0  0  0  0  0  0  0
    6.1382  -11.3884    0.0000 O   0  0  0  0  0  0  0  0  0  0  0  0
   15.7565   -8.7937    0.0000 C   0  0  0  0  0  0  0  0  0  0  0  0
   17.2842   -9.6764    0.0000 C   0  0  0  0  0  0  0  0  0  0  0  0
    8.7241   -6.9094    0.0000 C   0  0  0  0  0  0  0  0  0  0  0  0
    9.5964   -5.3877    0.0000 C   0  0  0  0  0  0  0  0  0  0  0  0
   17.2848  -11.4408    0.0000 O   0  0  0  0  0  0  0  0  0  0  0  0
   18.8113   -8.7948    0.0000 O   0  0  0  0  0  0  0  0  0  0  0  0
   11.3502   -5.3932    0.0000 O   0  0  0  0  0  0  0  0  0  0  0  0
    8.7148   -3.8606    0.0000 O   0  0  0  0  0  0  0  0  0  0  0  0
   15.7565  -13.9656    0.0000 O   0  0  0  0  0  0  0  0  0  0  0  0
  1  2  1  0
  3  4  1  0
  5  6  1  0
  7  8  1  0
  8  9  1  0
  5  9  1  0
  7 10  1  0
  3 10  1  0
  4 11  1  0
  1 11  1  0
  6 12  1  0
  2 12  1  0
  4 13  2  0
  9 14  1  0
 14 15  1  0
 10 16  1  0
 16 17  1  0
 15 18  1  0
 15 19  2  0
 17 20  1  0
 17 21  2  0
  6 22  2  0
M  END
>  <Name>  (343) 
K2-A2-12C4-1

>  <logK_La_z=3.0_T=25_I=1.0>  (343) 
5.48

$$$$

     RDKit          2D

 25 25  0  0  0  0  0  0  0  0999 V2000
    7.0914   -9.6842    0.0000 C   0  0  0  0  0  0  0  0  0  0  0  0
    8.5103   -8.1115    0.0000 C   0  0  0  0  0  0  0  0  0  0  0  0
   12.5655   -7.2452    0.0000 C   0  0  0  0  0  0  0  0  0  0  0  0
   14.5250   -8.1133    0.0000 C   0  0  0  0  0  0  0  0  0  0  0  0
   16.3617  -13.8205    0.0000 C   0  0  0  0  0  0  0  0  0  0  0  0
   16.6041  -11.7144    0.0000 C   0  0  0  0  0  0  0  0  0  0  0  0
   11.5194  -17.3537    0.0000 C   0  0  0  0  0  0  0  0  0  0  0  0
   13.5909  -16.9113    0.0000 C   0  0  0  0  0  0  0  0  0  0  0  0
   15.3208  -15.6502    0.0000 N   0  0  0  0  0  0  0  0  0  0  0  0
   15.9421   -9.6873    0.0000 N   0  0  0  0  0  0  0  0  0  0  0  0
   16.9011  -17.0813    0.0000 C   0  0  0  0  0  0  0  0  0  0  0  0
   16.4670  -19.1676    0.0000 C   0  0  0  0  0  0  0  0  0  0  0  0
   17.7857   -8.6229    0.0000 C   0  0  0  0  0  0  0  0  0  0  0  0
   19.6302   -9.6885    0.0000 C   0  0  0  0  0  0  0  0  0  0  0  0
   10.4602   -7.2314    0.0000 O   0  0  0  0  0  0  0  0  0  0  0  0
    7.7112  -15.6687    0.0000 C   0  0  0  0  0  0  0  0  0  0  0  0
    6.6469  -13.8252    0.0000 C   0  0  0  0  0  0  0  0  0  0  0  0
    9.4259  -16.9071    0.0000 O   0  0  0  0  0  0  0  0  0  0  0  0
    6.4243  -11.7081    0.0000 O   0  0  0  0  0  0  0  0  0  0  0  0
   13.0193   -5.1642    0.0000 O   0  0  0  0  0  0  0  0  0  0  0  0
   11.5200  -19.4839    0.0000 O   0  0  0  0  0  0  0  0  0  0  0  0
   14.4329  -19.8176    0.0000 O   0  0  0  0  0  0  0  0  0  0  0  0
   18.0397  -20.5865    0.0000 O   0  0  0  0  0  0  0  0  0  0  0  0
   19.6235  -11.8062    0.0000 O   0  0  0  0  0  0  0  0  0  0  0  0
   21.4737   -8.6241    0.0000 O   0  0  0  0  0  0  0  0  0  0  0  0
  1  2  1  0
  3  4  1  0
  5  6  1  0
  7  8  1  0
  8  9  1  0
  5  9  1  0
  6 10  1  0
  4 10  1  0
  9 11  1  0
 11 12  1  0
 10 13  1  0
 13 14  1  0
  3 15  1  0
  2 15  1  0
 16 17  1  0
 16 18  1  0
  7 18  1  0
 17 19  1  0
  1 19  1  0
  3 20  2  0
  7 21  2  0
 12 22  1  0
 12 23  2  0
 14 24  2  0
 14 25  1  0
M  END
>  <Name>  (344) 
K2-A2-15C5-2

>  <logK_La_z=3.0_T=25_I=1.0>  (344) 
7.23

$$$$

     RDKit          2D

 28 28  0  0  0  0  0  0  0  0999 V2000
   13.2252  -18.6816    0.0000 C   0  0  0  0  0  0  0  0  0  0  0  0
   11.5017  -18.6869    0.0000 C   0  0  0  0  0  0  0  0  0  0  0  0
    7.6818  -15.4811    0.0000 C   0  0  0  0  0  0  0  0  0  0  0  0
    8.5494  -16.9824    0.0000 C   0  0  0  0  0  0  0  0  0  0  0  0
    8.5468  -10.5632    0.0000 C   0  0  0  0  0  0  0  0  0  0  0  0
    7.6800  -12.0645    0.0000 C   0  0  0  0  0  0  0  0  0  0  0  0
   17.0521  -15.4737    0.0000 C   0  0  0  0  0  0  0  0  0  0  0  0
   16.1853  -16.9751    0.0000 C   0  0  0  0  0  0  0  0  0  0  0  0
   13.2344   -8.8676    0.0000 C   0  0  0  0  0  0  0  0  0  0  0  0
   11.5005   -8.8669    0.0000 C   0  0  0  0  0  0  0  0  0  0  0  0
   16.1867  -10.5721    0.0000 C   0  0  0  0  0  0  0  0  0  0  0  0
   17.0439  -12.0674    0.0000 C   0  0  0  0  0  0  0  0  0  0  0  0
   14.8557   -9.4568    0.0000 N   0  0  0  0  0  0  0  0  0  0  0  0
   17.3402  -13.7731    0.0000 N   0  0  0  0  0  0  0  0  0  0  0  0
    9.8654   -9.4575    0.0000 O   0  0  0  0  0  0  0  0  0  0  0  0
    7.3757  -13.7698    0.0000 O   0  0  0  0  0  0  0  0  0  0  0  0
    9.8701  -18.0922    0.0000 O   0  0  0  0  0  0  0  0  0  0  0  0
   14.8505  -18.0854    0.0000 O   0  0  0  0  0  0  0  0  0  0  0  0
   17.5058  -18.0843    0.0000 O   0  0  0  0  0  0  0  0  0  0  0  0
   11.1942   -7.1560    0.0000 O   0  0  0  0  0  0  0  0  0  0  0  0
   19.0744  -13.7734    0.0000 C   0  0  0  0  0  0  0  0  0  0  0  0
   19.9418  -15.2751    0.0000 C   0  0  0  0  0  0  0  0  0  0  0  0
   15.7225   -7.9555    0.0000 C   0  0  0  0  0  0  0  0  0  0  0  0
   17.4565   -7.9563    0.0000 C   0  0  0  0  0  0  0  0  0  0  0  0
   18.3140   -9.4517    0.0000 O   0  0  0  0  0  0  0  0  0  0  0  0
   18.3232   -6.4550    0.0000 O   0  0  0  0  0  0  0  0  0  0  0  0
   19.0812  -16.7655    0.0000 O   0  0  0  0  0  0  0  0  0  0  0  0
   21.6759  -15.2754    0.0000 O   0  0  0  0  0  0  0  0  0  0  0  0
  1  2  1  0
  3  4  1  0
  5  6  1  0
  7  8  1  0
  9 10  1  0
 11 12  1  0
 11 13  1  0
  9 13  1  0
 12 14  1  0
  7 14  1  0
 10 15  1  0
  5 15  1  0
  6 16  1  0
  3 16  1  0
  4 17  1  0
  2 17  1  0
  1 18  1  0
  8 18  1  0
  8 19  2  0
 10 20  2  0
 14 21  1  0
 21 22  1  0
 13 23  1  0
 23 24  1  0
 24 25  1  0
 24 26  2  0
 22 27  1  0
 22 28  2  0
M  END
>  <Name>  (345) 
K2-A2-18C6-3

>  <logK_La_z=3.0_T=25_I=1.0>  (345) 
8.46

$$$$

     RDKit          2D

 28 28  0  0  0  0  0  0  0  0999 V2000
   12.7316  -16.6173    0.0000 C   0  0  0  0  0  0  0  0  0  0  0  0
   11.0413  -17.5937    0.0000 C   0  0  0  0  0  0  0  0  0  0  0  0
   10.8176  -14.3409    0.0000 C   0  0  0  0  0  0  0  0  0  0  0  0
    9.1277  -13.3653    0.0000 C   0  0  0  0  0  0  0  0  0  0  0  0
    7.8791  -14.8517    0.0000 O   0  0  0  0  0  0  0  0  0  0  0  0
    7.8779  -11.8628    0.0000 O   0  0  0  0  0  0  0  0  0  0  0  0
   16.3451   -4.7670    0.0000 C   0  0  0  0  0  0  0  0  0  0  0  0
   14.6552   -3.7913    0.0000 C   0  0  0  0  0  0  0  0  0  0  0  0
   19.2804  -12.8443    0.0000 C   0  0  0  0  0  0  0  0  0  0  0  0
   19.2796  -14.7961    0.0000 C   0  0  0  0  0  0  0  0  0  0  0  0
   18.2537  -10.0436    0.0000 C   0  0  0  0  0  0  0  0  0  0  0  0
   18.2545   -8.0918    0.0000 C   0  0  0  0  0  0  0  0  0  0  0  0
   14.6520  -14.3317    0.0000 C   0  0  0  0  0  0  0  0  0  0  0  0
   16.3351  -13.3668    0.0000 C   0  0  0  0  0  0  0  0  0  0  0  0
   17.5905  -11.8686    0.0000 N   0  0  0  0  0  0  0  0  0  0  0  0
   17.5963  -15.7614    0.0000 O   0  0  0  0  0  0  0  0  0  0  0  0
   20.9695  -15.7718    0.0000 O   0  0  0  0  0  0  0  0  0  0  0  0
   20.1804   -7.7471    0.0000 O   0  0  0  0  0  0  0  0  0  0  0  0
   17.5897   -6.2514    0.0000 O   0  0  0  0  0  0  0  0  0  0  0  0
   12.7357   -3.4489    0.0000 O   0  0  0  0  0  0  0  0  0  0  0  0
   12.7320  -14.6653    0.0000 N   0  0  0  0  0  0  0  0  0  0  0  0
    9.3635  -16.6250    0.0000 O   0  0  0  0  0  0  0  0  0  0  0  0
   11.0409  -19.5457    0.0000 O   0  0  0  0  0  0  0  0  0  0  0  0
    7.2068  -10.0332    0.0000 C   0  0  0  0  0  0  0  0  0  0  0  0
   10.8094   -3.7934    0.0000 C   0  0  0  0  0  0  0  0  0  0  0  0
    7.2008   -8.0932    0.0000 O   0  0  0  0  0  0  0  0  0  0  0  0
    9.1195   -4.7700    0.0000 O   0  0  0  0  0  0  0  0  0  0  0  0
    7.8702   -6.2566    0.0000 C   0  0  0  0  0  0  0  0  0  0  0  0
  1  2  1  0
  3  4  1  0
  4  5  2  0
  4  6  1  0
  7  8  1  0
  9 10  1  0
 11 12  1  0
 13 14  1  0
 14 15  1  0
 11 15  1  0
  9 15  1  0
 10 16  1  0
 10 17  2  0
 12 18  2  0
 12 19  1  0
  7 19  1  0
  8 20  1  0
 13 21  1  0
  3 21  1  0
  1 21  1  0
  2 22  1  0
  2 23  2  0
  6 24  1  0
 20 25  1  0
 24 26  1  0
 25 27  1  0
 26 28  1  0
 27 28  1  0
M  END
>  <Name>  (346) 
K2-A2-21C7-1

>  <logK_La_z=3.0_T=25_I=1.0>  (346) 
8.35

$$$$

     RDKit          2D

 29 31  0  0  0  0  0  0  0  0999 V2000
   13.9980  -12.5425    0.0000 N   0  0  0  0  0  0  0  0  0  0  0  0
   15.4172  -12.5947    0.0000 C   0  0  0  0  0  0  0  0  0  0  0  0
   16.3155  -11.5648    0.0000 C   0  0  0  0  0  0  0  0  0  0  0  0
   17.7105  -11.4707    0.0000 N   0  0  0  0  0  0  0  0  0  0  0  0
   18.4024  -12.7231    0.0000 C   0  0  0  0  0  0  0  0  0  0  0  0
   17.7821  -13.9985    0.0000 C   0  0  0  0  0  0  0  0  0  0  0  0
   18.3730  -10.1947    0.0000 C   0  0  0  0  0  0  0  0  0  0  0  0
   13.2833  -11.2993    0.0000 C   0  0  0  0  0  0  0  0  0  0  0  0
   13.3134  -13.8112    0.0000 C   0  0  0  0  0  0  0  0  0  0  0  0
   19.8025  -10.1111    0.0000 C   0  0  0  0  0  0  0  0  0  0  0  0
   20.5363  -11.3492    0.0000 C   0  0  0  0  0  0  0  0  0  0  0  0
   20.5177   -8.8723    0.0000 N   0  0  0  0  0  0  0  0  0  0  0  0
   21.9672  -11.3474    0.0000 C   0  0  0  0  0  0  0  0  0  0  0  0
   21.9526   -8.8634    0.0000 C   0  0  0  0  0  0  0  0  0  0  0  0
   22.6801  -10.0998    0.0000 C   0  0  0  0  0  0  0  0  0  0  0  0
   13.9540  -10.0334    0.0000 C   0  0  0  0  0  0  0  0  0  0  0  0
   13.2693   -8.7663    0.0000 N   0  0  0  0  0  0  0  0  0  0  0  0
   15.3560   -9.9414    0.0000 C   0  0  0  0  0  0  0  0  0  0  0  0
   14.0035   -7.5391    0.0000 C   0  0  0  0  0  0  0  0  0  0  0  0
   16.1372   -8.7601    0.0000 C   0  0  0  0  0  0  0  0  0  0  0  0
   15.4328   -7.4932    0.0000 C   0  0  0  0  0  0  0  0  0  0  0  0
   11.8816  -13.8496    0.0000 C   0  0  0  0  0  0  0  0  0  0  0  0
   11.1697  -15.0944    0.0000 C   0  0  0  0  0  0  0  0  0  0  0  0
   11.1590  -12.6085    0.0000 N   0  0  0  0  0  0  0  0  0  0  0  0
    9.7335  -15.0938    0.0000 C   0  0  0  0  0  0  0  0  0  0  0  0
    9.7254  -12.6068    0.0000 C   0  0  0  0  0  0  0  0  0  0  0  0
    9.0128  -13.8539    0.0000 C   0  0  0  0  0  0  0  0  0  0  0  0
   18.7089  -15.1409    0.0000 O   0  0  0  0  0  0  0  0  0  0  0  0
   16.4432  -14.4617    0.0000 O   0  0  0  0  0  0  0  0  0  0  0  0
  1  2  1  0
  2  3  1  0
  3  4  1  0
  4  5  1  0
  5  6  1  0
  4  7  1  0
  1  8  1  0
  1  9  1  0
 11 10  2  0
 12 10  1  0
 13 11  1  0
 14 12  2  0
 15 13  2  0
 15 14  1  0
  7 10  1  0
 17 16  2  0
 18 16  1  0
 19 17  1  0
 20 18  2  0
 21 19  2  0
 21 20  1  0
  8 16  1  0
 23 22  2  0
 24 22  1  0
 25 23  1  0
 26 24  2  0
 27 25  2  0
 27 26  1  0
  9 22  1  0
  6 28  2  0
  6 29  1  0
M  END
>  <Name>  (347) 
L3py

>  <logK_La_z=3.0_T=25_I=1.0>  (347) 
6.99

$$$$

     RDKit          2D

 34 35  0  0  0  0  0  0  0  0999 V2000
   12.2823   -8.2808    0.0000 C   0  0  0  0  0  0  0  0  0  0  0  0
   11.6173   -9.4326    0.0000 N   0  0  0  0  0  0  0  0  0  0  0  0
   11.6173   -7.1290    0.0000 C   0  0  0  0  0  0  0  0  0  0  0  0
   10.2873   -9.4326    0.0000 C   0  0  0  0  0  0  0  0  0  0  0  0
   10.2873   -7.1290    0.0000 C   0  0  0  0  0  0  0  0  0  0  0  0
    9.6223   -8.2808    0.0000 C   0  0  0  0  0  0  0  0  0  0  0  0
   13.6123   -8.2808    0.0000 C   0  0  0  0  0  0  0  0  0  0  0  0
   14.2773   -7.1290    0.0000 C   0  0  0  0  0  0  0  0  0  0  0  0
   14.2773   -9.4326    0.0000 N   0  0  0  0  0  0  0  0  0  0  0  0
   15.6073   -7.1290    0.0000 C   0  0  0  0  0  0  0  0  0  0  0  0
   15.6073   -9.4326    0.0000 C   0  0  0  0  0  0  0  0  0  0  0  0
   16.2723   -8.2808    0.0000 C   0  0  0  0  0  0  0  0  0  0  0  0
   16.2723  -10.5844    0.0000 C   0  0  0  0  0  0  0  0  0  0  0  0
    9.6223  -10.5844    0.0000 C   0  0  0  0  0  0  0  0  0  0  0  0
    8.2923  -10.5844    0.0000 N   0  0  0  0  0  0  0  0  0  0  0  0
    7.6273  -11.7362    0.0000 C   0  0  0  0  0  0  0  0  0  0  0  0
    6.2973  -11.7362    0.0000 C   0  0  0  0  0  0  0  0  0  0  0  0
    5.6323  -12.8881    0.0000 C   0  0  0  0  0  0  0  0  0  0  0  0
   15.6073  -11.7362    0.0000 O   0  0  0  0  0  0  0  0  0  0  0  0
   17.6023  -10.5844    0.0000 N   0  0  0  0  0  0  0  0  0  0  0  0
   10.2873  -11.7362    0.0000 O   0  0  0  0  0  0  0  0  0  0  0  0
    4.3023  -12.8880    0.0000 C   0  0  0  0  0  0  0  0  0  0  0  0
    7.6273   -9.4326    0.0000 C   0  0  0  0  0  0  0  0  0  0  0  0
    8.2923   -8.2808    0.0000 C   0  0  0  0  0  0  0  0  0  0  0  0
    7.6273   -7.1290    0.0000 C   0  0  0  0  0  0  0  0  0  0  0  0
    8.2923   -5.9772    0.0000 C   0  0  0  0  0  0  0  0  0  0  0  0
   18.2673   -9.4326    0.0000 C   0  0  0  0  0  0  0  0  0  0  0  0
   18.2673  -11.7362    0.0000 C   0  0  0  0  0  0  0  0  0  0  0  0
   19.5973   -9.4326    0.0000 C   0  0  0  0  0  0  0  0  0  0  0  0
   20.2623   -8.2808    0.0000 C   0  0  0  0  0  0  0  0  0  0  0  0
   21.5923   -8.2808    0.0000 C   0  0  0  0  0  0  0  0  0  0  0  0
   17.6023  -12.8881    0.0000 C   0  0  0  0  0  0  0  0  0  0  0  0
   18.2673  -14.0399    0.0000 C   0  0  0  0  0  0  0  0  0  0  0  0
   17.6023  -15.1917    0.0000 C   0  0  0  0  0  0  0  0  0  0  0  0
  2  1  2  0
  3  1  1  0
  4  2  1  0
  5  3  2  0
  6  4  2  0
  6  5  1  0
  8  7  2  0
  9  7  1  0
 10  8  1  0
 11  9  2  0
 12 10  2  0
 12 11  1  0
  1  7  1  0
 11 13  1  0
  4 14  1  0
 14 15  1  0
 15 16  1  0
 16 17  1  0
 17 18  1  0
 13 19  2  0
 13 20  1  0
 14 21  2  0
 18 22  1  0
 15 23  1  0
 23 24  1  0
 24 25  1  0
 25 26  1  0
 20 27  1  0
 20 28  1  0
 27 29  1  0
 29 30  1  0
 30 31  1  0
 28 32  1  0
 32 33  1  0
 33 34  1  0
M  END
>  <Name>  (348) 
LBu2

>  <logK_La_z=3.0_T=25_I=1.0>  (348) 
5.5

$$$$

     RDKit          2D

  6  5  0  0  1  0  0  0  0  0999 V2000
    8.8033   -5.1220    0.0000 C   0  0  0  0  0  0  0  0  0  0  0  0
   10.6886   -8.3876    0.0000 C   0  0  0  0  0  0  0  0  0  0  0  0
   14.4051   -8.3896    0.0000 C   0  0  0  0  0  0  0  0  0  0  0  0
    8.7886  -11.6323    0.0000 O   0  0  0  0  0  0  0  0  0  0  0  0
   16.2905  -11.6552    0.0000 O   0  0  0  0  0  0  0  0  0  0  0  0
   16.3052   -5.1449    0.0000 O   0  0  0  0  0  0  0  0  0  0  0  0
  2  1  1  1
  2  3  1  0
  2  4  1  0
  3  5  1  0
  3  6  2  0
M  END
>  <Name>  (349) 
L-Lactic

>  <logK_La_z=3.0_T=25_I=1.0>  (349) 
2.44

$$$$

     RDKit          2D

 50 51  0  0  0  0  0  0  0  0999 V2000
   14.6378  -10.6684    0.0000 C   0  0  0  0  0  0  0  0  0  0  0  0
   13.9728  -11.8202    0.0000 N   0  0  0  0  0  0  0  0  0  0  0  0
   13.9728   -9.5166    0.0000 C   0  0  0  0  0  0  0  0  0  0  0  0
   12.6428  -11.8202    0.0000 C   0  0  0  0  0  0  0  0  0  0  0  0
   12.6428   -9.5166    0.0000 C   0  0  0  0  0  0  0  0  0  0  0  0
   11.9778  -10.6684    0.0000 C   0  0  0  0  0  0  0  0  0  0  0  0
   15.9678  -10.6684    0.0000 C   0  0  0  0  0  0  0  0  0  0  0  0
   16.6329   -9.5166    0.0000 C   0  0  0  0  0  0  0  0  0  0  0  0
   16.6329  -11.8202    0.0000 N   0  0  0  0  0  0  0  0  0  0  0  0
   17.9629   -9.5166    0.0000 C   0  0  0  0  0  0  0  0  0  0  0  0
   17.9629  -11.8202    0.0000 C   0  0  0  0  0  0  0  0  0  0  0  0
   18.6278  -10.6684    0.0000 C   0  0  0  0  0  0  0  0  0  0  0  0
   18.6279  -12.9720    0.0000 C   0  0  0  0  0  0  0  0  0  0  0  0
   11.9778  -12.9720    0.0000 C   0  0  0  0  0  0  0  0  0  0  0  0
   10.6479  -12.9720    0.0000 N   0  0  0  0  0  0  0  0  0  0  0  0
    9.9829  -14.1238    0.0000 C   0  0  0  0  0  0  0  0  0  0  0  0
    8.6529  -14.1238    0.0000 C   0  0  0  0  0  0  0  0  0  0  0  0
    7.9878  -15.2756    0.0000 C   0  0  0  0  0  0  0  0  0  0  0  0
   17.9629  -14.1238    0.0000 O   0  0  0  0  0  0  0  0  0  0  0  0
   19.9579  -12.9720    0.0000 N   0  0  0  0  0  0  0  0  0  0  0  0
   12.6428  -14.1238    0.0000 O   0  0  0  0  0  0  0  0  0  0  0  0
    6.6578  -15.2756    0.0000 C   0  0  0  0  0  0  0  0  0  0  0  0
    9.9829  -11.8202    0.0000 C   0  0  0  0  0  0  0  0  0  0  0  0
   10.6479  -10.6684    0.0000 C   0  0  0  0  0  0  0  0  0  0  0  0
    9.9829   -9.5166    0.0000 C   0  0  0  0  0  0  0  0  0  0  0  0
   10.6478   -8.3648    0.0000 C   0  0  0  0  0  0  0  0  0  0  0  0
   20.6229  -11.8202    0.0000 C   0  0  0  0  0  0  0  0  0  0  0  0
   20.6229  -14.1238    0.0000 C   0  0  0  0  0  0  0  0  0  0  0  0
   21.9529  -11.8202    0.0000 C   0  0  0  0  0  0  0  0  0  0  0  0
   22.6179  -10.6684    0.0000 C   0  0  0  0  0  0  0  0  0  0  0  0
   23.9479  -10.6684    0.0000 C   0  0  0  0  0  0  0  0  0  0  0  0
   19.9579  -15.2756    0.0000 C   0  0  0  0  0  0  0  0  0  0  0  0
   20.6229  -16.4275    0.0000 C   0  0  0  0  0  0  0  0  0  0  0  0
   19.9579  -17.5793    0.0000 C   0  0  0  0  0  0  0  0  0  0  0  0
    9.9829   -7.2129    0.0000 C   0  0  0  0  0  0  0  0  0  0  0  0
   10.6479   -6.0611    0.0000 C   0  0  0  0  0  0  0  0  0  0  0  0
    9.9829   -4.9093    0.0000 C   0  0  0  0  0  0  0  0  0  0  0  0
   10.6479   -3.7575    0.0000 C   0  0  0  0  0  0  0  0  0  0  0  0
    5.9928  -16.4275    0.0000 C   0  0  0  0  0  0  0  0  0  0  0  0
    4.6628  -16.4274    0.0000 C   0  0  0  0  0  0  0  0  0  0  0  0
    3.9978  -17.5793    0.0000 C   0  0  0  0  0  0  0  0  0  0  0  0
    2.6678  -17.5792    0.0000 C   0  0  0  0  0  0  0  0  0  0  0  0
   24.6129   -9.5166    0.0000 C   0  0  0  0  0  0  0  0  0  0  0  0
   25.9429   -9.5166    0.0000 C   0  0  0  0  0  0  0  0  0  0  0  0
   26.6079   -8.3648    0.0000 C   0  0  0  0  0  0  0  0  0  0  0  0
   27.9379   -8.3648    0.0000 C   0  0  0  0  0  0  0  0  0  0  0  0
   20.6228  -18.7311    0.0000 C   0  0  0  0  0  0  0  0  0  0  0  0
   19.9578  -19.8829    0.0000 C   0  0  0  0  0  0  0  0  0  0  0  0
   20.6228  -21.0347    0.0000 C   0  0  0  0  0  0  0  0  0  0  0  0
   19.9578  -22.1865    0.0000 C   0  0  0  0  0  0  0  0  0  0  0  0
  2  1  2  0
  3  1  1  0
  4  2  1  0
  5  3  2  0
  6  4  2  0
  6  5  1  0
  8  7  2  0
  9  7  1  0
 10  8  1  0
 11  9  2  0
 12 10  2  0
 12 11  1  0
  1  7  1  0
 11 13  1  0
  4 14  1  0
 14 15  1  0
 15 16  1  0
 16 17  1  0
 17 18  1  0
 13 19  2  0
 13 20  1  0
 14 21  2  0
 18 22  1  0
 15 23  1  0
 23 24  1  0
 24 25  1  0
 25 26  1  0
 20 27  1  0
 20 28  1  0
 27 29  1  0
 29 30  1  0
 30 31  1  0
 28 32  1  0
 32 33  1  0
 33 34  1  0
 26 35  1  0
 35 36  1  0
 36 37  1  0
 37 38  1  0
 22 39  1  0
 39 40  1  0
 40 41  1  0
 41 42  1  0
 31 43  1  0
 43 44  1  0
 44 45  1  0
 45 46  1  0
 34 47  1  0
 47 48  1  0
 48 49  1  0
 49 50  1  0
M  END
>  <Name>  (350) 
LOct2

>  <logK_La_z=3.0_T=25_I=1.0>  (350) 
6.7

$$$$

     RDKit          2D

 34 37  0  0  0  0  0  0  0  0999 V2000
   13.8366  -10.5082    0.0000 C   0  0  0  0  0  0  0  0  0  0  0  0
   13.1716  -11.6600    0.0000 N   0  0  0  0  0  0  0  0  0  0  0  0
   13.1716   -9.3564    0.0000 C   0  0  0  0  0  0  0  0  0  0  0  0
   11.8416  -11.6600    0.0000 C   0  0  0  0  0  0  0  0  0  0  0  0
   11.8416   -9.3564    0.0000 C   0  0  0  0  0  0  0  0  0  0  0  0
   11.1766  -10.5082    0.0000 C   0  0  0  0  0  0  0  0  0  0  0  0
   15.1666  -10.5082    0.0000 C   0  0  0  0  0  0  0  0  0  0  0  0
   15.8316   -9.3564    0.0000 C   0  0  0  0  0  0  0  0  0  0  0  0
   15.8316  -11.6600    0.0000 N   0  0  0  0  0  0  0  0  0  0  0  0
   17.1616   -9.3564    0.0000 C   0  0  0  0  0  0  0  0  0  0  0  0
   17.1616  -11.6600    0.0000 C   0  0  0  0  0  0  0  0  0  0  0  0
   17.8266  -10.5082    0.0000 C   0  0  0  0  0  0  0  0  0  0  0  0
   17.8266  -12.8118    0.0000 C   0  0  0  0  0  0  0  0  0  0  0  0
   11.1766  -12.8118    0.0000 C   0  0  0  0  0  0  0  0  0  0  0  0
    9.8466  -12.8118    0.0000 N   0  0  0  0  0  0  0  0  0  0  0  0
   17.1616  -13.9636    0.0000 O   0  0  0  0  0  0  0  0  0  0  0  0
   19.1566  -12.8118    0.0000 N   0  0  0  0  0  0  0  0  0  0  0  0
   11.8416  -13.9636    0.0000 O   0  0  0  0  0  0  0  0  0  0  0  0
    9.1816  -11.6600    0.0000 C   0  0  0  0  0  0  0  0  0  0  0  0
   19.8216  -11.6600    0.0000 C   0  0  0  0  0  0  0  0  0  0  0  0
    9.8466  -10.5082    0.0000 C   0  0  0  0  0  0  0  0  0  0  0  0
   21.1516  -11.6600    0.0000 C   0  0  0  0  0  0  0  0  0  0  0  0
   19.8216  -13.9636    0.0000 C   0  0  0  0  0  0  0  0  0  0  0  0
   21.1516  -13.9636    0.0000 C   0  0  0  0  0  0  0  0  0  0  0  0
   19.1566  -15.1154    0.0000 C   0  0  0  0  0  0  0  0  0  0  0  0
   21.8166  -15.1154    0.0000 C   0  0  0  0  0  0  0  0  0  0  0  0
   19.8216  -16.2673    0.0000 C   0  0  0  0  0  0  0  0  0  0  0  0
   21.1516  -16.2673    0.0000 C   0  0  0  0  0  0  0  0  0  0  0  0
    9.1816  -13.9636    0.0000 C   0  0  0  0  0  0  0  0  0  0  0  0
    9.8466  -15.1154    0.0000 C   0  0  0  0  0  0  0  0  0  0  0  0
    7.8516  -13.9636    0.0000 C   0  0  0  0  0  0  0  0  0  0  0  0
    9.1816  -16.2673    0.0000 C   0  0  0  0  0  0  0  0  0  0  0  0
    7.1866  -15.1154    0.0000 C   0  0  0  0  0  0  0  0  0  0  0  0
    7.8516  -16.2673    0.0000 C   0  0  0  0  0  0  0  0  0  0  0  0
  2  1  2  0
  3  1  1  0
  4  2  1  0
  5  3  2  0
  6  4  2  0
  6  5  1  0
  8  7  2  0
  9  7  1  0
 10  8  1  0
 11  9  2  0
 12 10  2  0
 12 11  1  0
  1  7  1  0
 11 13  1  0
  4 14  1  0
 14 15  1  0
 13 16  2  0
 13 17  1  0
 14 18  2  0
 15 19  1  0
 17 20  1  0
 19 21  1  0
 20 22  1  0
 24 23  2  0
 25 23  1  0
 26 24  1  0
 27 25  2  0
 28 26  2  0
 28 27  1  0
 17 23  1  0
 30 29  2  0
 31 29  1  0
 32 30  1  0
 33 31  2  0
 34 32  2  0
 34 33  1  0
 15 29  1  0
M  END
>  <Name>  (351) 
LPh

>  <logK_La_z=3.0_T=25_I=1.0>  (351) 
6.2

$$$$

     RDKit          2D

 26 27  0  0  0  0  0  0  0  0999 V2000
   10.8563  -11.5329    0.0000 N   0  0  0  0  0  0  0  0  0  0  0  0
   12.2898  -11.5329    0.0000 C   0  0  0  0  0  0  0  0  0  0  0  0
   13.0066  -10.2915    0.0000 C   0  0  0  0  0  0  0  0  0  0  0  0
   14.4401  -10.2915    0.0000 N   0  0  0  0  0  0  0  0  0  0  0  0
   15.1568  -11.5329    0.0000 C   0  0  0  0  0  0  0  0  0  0  0  0
   14.4401  -12.7744    0.0000 C   0  0  0  0  0  0  0  0  0  0  0  0
   15.1568   -9.0500    0.0000 C   0  0  0  0  0  0  0  0  0  0  0  0
   10.1395  -10.2915    0.0000 C   0  0  0  0  0  0  0  0  0  0  0  0
   10.1395  -12.7744    0.0000 C   0  0  0  0  0  0  0  0  0  0  0  0
   16.5904   -9.0500    0.0000 C   0  0  0  0  0  0  0  0  0  0  0  0
   10.8563   -9.0500    0.0000 C   0  0  0  0  0  0  0  0  0  0  0  0
   10.1395   -7.8086    0.0000 N   0  0  0  0  0  0  0  0  0  0  0  0
   12.2898   -9.0500    0.0000 C   0  0  0  0  0  0  0  0  0  0  0  0
   10.8563   -6.5671    0.0000 C   0  0  0  0  0  0  0  0  0  0  0  0
   13.0066   -7.8086    0.0000 C   0  0  0  0  0  0  0  0  0  0  0  0
   12.2898   -6.5671    0.0000 C   0  0  0  0  0  0  0  0  0  0  0  0
    8.7060  -12.7744    0.0000 C   0  0  0  0  0  0  0  0  0  0  0  0
    7.9893  -14.0159    0.0000 C   0  0  0  0  0  0  0  0  0  0  0  0
    7.9893  -11.5329    0.0000 N   0  0  0  0  0  0  0  0  0  0  0  0
    6.5557  -14.0159    0.0000 C   0  0  0  0  0  0  0  0  0  0  0  0
    6.5557  -11.5329    0.0000 C   0  0  0  0  0  0  0  0  0  0  0  0
    5.8390  -12.7744    0.0000 C   0  0  0  0  0  0  0  0  0  0  0  0
   15.1568  -14.0159    0.0000 O   0  0  0  0  0  0  0  0  0  0  0  0
   13.0066  -12.7744    0.0000 O   0  0  0  0  0  0  0  0  0  0  0  0
   17.3071   -7.8086    0.0000 O   0  0  0  0  0  0  0  0  0  0  0  0
   17.3071  -10.2915    0.0000 O   0  0  0  0  0  0  0  0  0  0  0  0
  1  2  1  0
  2  3  1  0
  3  4  1  0
  4  5  1  0
  5  6  1  0
  4  7  1  0
  1  8  1  0
  1  9  1  0
  7 10  1  0
 12 11  2  0
 13 11  1  0
 14 12  1  0
 15 13  2  0
 16 14  2  0
 16 15  1  0
  8 11  1  0
 18 17  2  0
 19 17  1  0
 20 18  1  0
 21 19  2  0
 22 20  2  0
 22 21  1  0
  9 17  1  0
  6 23  2  0
  6 24  1  0
 10 25  2  0
 10 26  1  0
M  END
>  <Name>  (352) 
Lpy

>  <logK_La_z=3.0_T=25_I=1.0>  (352) 
9.86

$$$$

     RDKit          2D

 26 27  0  0  0  0  0  0  0  0999 V2000
   14.8303  -11.5650    0.0000 N   0  0  0  0  0  0  0  0  0  0  0  0
   16.2638  -11.5650    0.0000 C   0  0  0  0  0  0  0  0  0  0  0  0
   16.9805  -10.3235    0.0000 C   0  0  0  0  0  0  0  0  0  0  0  0
   18.4141  -10.3235    0.0000 N   0  0  0  0  0  0  0  0  0  0  0  0
   19.1308  -11.5650    0.0000 C   0  0  0  0  0  0  0  0  0  0  0  0
   18.4141  -12.8065    0.0000 C   0  0  0  0  0  0  0  0  0  0  0  0
   19.1308   -9.0821    0.0000 C   0  0  0  0  0  0  0  0  0  0  0  0
   14.1135  -10.3235    0.0000 C   0  0  0  0  0  0  0  0  0  0  0  0
   14.1135  -12.8065    0.0000 C   0  0  0  0  0  0  0  0  0  0  0  0
   20.5643   -9.0821    0.0000 C   0  0  0  0  0  0  0  0  0  0  0  0
   14.8303   -9.0821    0.0000 C   0  0  0  0  0  0  0  0  0  0  0  0
   14.1135   -7.8406    0.0000 N   0  0  0  0  0  0  0  0  0  0  0  0
   16.2638   -9.0821    0.0000 C   0  0  0  0  0  0  0  0  0  0  0  0
   14.8303   -6.5992    0.0000 C   0  0  0  0  0  0  0  0  0  0  0  0
   16.9805   -7.8406    0.0000 N   0  0  0  0  0  0  0  0  0  0  0  0
   16.2638   -6.5992    0.0000 C   0  0  0  0  0  0  0  0  0  0  0  0
   12.6800  -12.8065    0.0000 C   0  0  0  0  0  0  0  0  0  0  0  0
   11.9632  -14.0479    0.0000 C   0  0  0  0  0  0  0  0  0  0  0  0
   11.9632  -11.5650    0.0000 N   0  0  0  0  0  0  0  0  0  0  0  0
   10.5297  -14.0479    0.0000 N   0  0  0  0  0  0  0  0  0  0  0  0
   10.5297  -11.5650    0.0000 C   0  0  0  0  0  0  0  0  0  0  0  0
    9.8130  -12.8065    0.0000 C   0  0  0  0  0  0  0  0  0  0  0  0
   19.1308  -14.0479    0.0000 O   0  0  0  0  0  0  0  0  0  0  0  0
   16.9805  -12.8065    0.0000 O   0  0  0  0  0  0  0  0  0  0  0  0
   21.2811   -7.8406    0.0000 O   0  0  0  0  0  0  0  0  0  0  0  0
   21.2811  -10.3235    0.0000 O   0  0  0  0  0  0  0  0  0  0  0  0
  1  2  1  0
  2  3  1  0
  3  4  1  0
  4  5  1  0
  5  6  1  0
  4  7  1  0
  1  8  1  0
  1  9  1  0
  7 10  1  0
 12 11  2  0
 13 11  1  0
 14 12  1  0
 15 13  2  0
 16 14  2  0
 16 15  1  0
  8 11  1  0
 18 17  2  0
 19 17  1  0
 20 18  1  0
 21 19  2  0
 22 20  2  0
 22 21  1  0
  9 17  1  0
  6 23  2  0
  6 24  1  0
 10 25  2  0
 10 26  1  0
M  END
>  <Name>  (353) 
Lpz

>  <logK_La_z=3.0_T=25_I=1.0>  (353) 
8.3

$$$$

     RDKit          2D

 10  9  0  0  1  0  0  0  0  0999 V2000
   14.4171  -15.5772    0.0000 C   0  0  0  0  0  0  0  0  0  0  0  0
   14.4171  -13.2792    0.0000 C   0  0  0  0  0  0  0  0  0  0  0  0
   16.4704  -12.2358    0.0000 C   0  0  0  0  0  0  0  0  0  0  0  0
   18.3847  -13.4685    0.0000 C   0  0  0  0  0  0  0  0  0  0  0  0
   18.5527  -15.7188    0.0000 C   0  0  0  0  0  0  0  0  0  0  0  0
   20.6782  -16.6866    0.0000 C   0  0  0  0  0  0  0  0  0  0  0  0
   12.4175  -16.7044    0.0000 N   0  0  0  0  0  0  0  0  0  0  0  0
   17.0607  -17.4504    0.0000 N   0  0  0  0  0  0  0  0  0  0  0  0
   20.8944  -18.9724    0.0000 O   0  0  0  0  0  0  0  0  0  0  0  0
   22.5372  -15.3326    0.0000 O   0  0  0  0  0  0  0  0  0  0  0  0
  1  2  1  0
  2  3  1  0
  3  4  1  0
  4  5  1  0
  5  6  1  0
  1  7  1  0
  5  8  1  1
  6  9  2  0
  6 10  1  0
M  END
>  <Name>  (354) 
Lysine

>  <logK_La_z=3.0_T=25_I=1.0>  (354) 
5.8

$$$$

     RDKit          2D

 40 44  0  0  0  0  0  0  0  0999 V2000
   16.4086  -12.4040    0.0000 C   0  0  0  0  0  0  0  0  0  0  0  0
   16.6451  -11.1069    0.0000 C   0  0  0  0  0  0  0  0  0  0  0  0
   15.1735  -12.8585    0.0000 C   0  0  0  0  0  0  0  0  0  0  0  0
   15.6361  -10.2477    0.0000 N   0  0  0  0  0  0  0  0  0  0  0  0
   14.1516  -12.0024    0.0000 C   0  0  0  0  0  0  0  0  0  0  0  0
   14.3852  -10.6930    0.0000 C   0  0  0  0  0  0  0  0  0  0  0  0
   17.8927  -10.6492    0.0000 C   0  0  0  0  0  0  0  0  0  0  0  0
   13.3680   -9.8291    0.0000 C   0  0  0  0  0  0  0  0  0  0  0  0
   18.9100  -11.5131    0.0000 N   0  0  0  0  0  0  0  0  0  0  0  0
   12.1204  -10.2868    0.0000 N   0  0  0  0  0  0  0  0  0  0  0  0
   13.6045   -8.5319    0.0000 O   0  0  0  0  0  0  0  0  0  0  0  0
   18.1342   -9.3444    0.0000 O   0  0  0  0  0  0  0  0  0  0  0  0
   11.8789  -11.5916    0.0000 C   0  0  0  0  0  0  0  0  0  0  0  0
   11.2676   -9.2616    0.0000 C   0  0  0  0  0  0  0  0  0  0  0  0
   18.6809  -12.8146    0.0000 C   0  0  0  0  0  0  0  0  0  0  0  0
   20.1654  -11.0599    0.0000 C   0  0  0  0  0  0  0  0  0  0  0  0
   19.6953  -13.6664    0.0000 C   0  0  0  0  0  0  0  0  0  0  0  0
   19.4571  -14.9836    0.0000 C   0  0  0  0  0  0  0  0  0  0  0  0
   20.9412  -13.2287    0.0000 C   0  0  0  0  0  0  0  0  0  0  0  0
   20.4789  -15.8397    0.0000 C   0  0  0  0  0  0  0  0  0  0  0  0
   21.9630  -14.0848    0.0000 C   0  0  0  0  0  0  0  0  0  0  0  0
   21.7298  -15.3944    0.0000 C   0  0  0  0  0  0  0  0  0  0  0  0
   20.3990   -9.7506    0.0000 C   0  0  0  0  0  0  0  0  0  0  0  0
   19.3817   -8.8866    0.0000 C   0  0  0  0  0  0  0  0  0  0  0  0
   21.6544   -9.2974    0.0000 C   0  0  0  0  0  0  0  0  0  0  0  0
   19.6153   -7.5773    0.0000 C   0  0  0  0  0  0  0  0  0  0  0  0
   21.8878   -7.9875    0.0000 C   0  0  0  0  0  0  0  0  0  0  0  0
   20.8660   -7.1314    0.0000 C   0  0  0  0  0  0  0  0  0  0  0  0
   11.7197   -8.0175    0.0000 C   0  0  0  0  0  0  0  0  0  0  0  0
   10.8628   -7.0004    0.0000 C   0  0  0  0  0  0  0  0  0  0  0  0
   13.0290   -7.7902    0.0000 C   0  0  0  0  0  0  0  0  0  0  0  0
   11.3192   -5.7479    0.0000 C   0  0  0  0  0  0  0  0  0  0  0  0
   13.4815   -6.5453    0.0000 C   0  0  0  0  0  0  0  0  0  0  0  0
   12.6285   -5.5205    0.0000 C   0  0  0  0  0  0  0  0  0  0  0  0
   10.6314  -12.0493    0.0000 C   0  0  0  0  0  0  0  0  0  0  0  0
    9.6141  -11.1854    0.0000 C   0  0  0  0  0  0  0  0  0  0  0  0
   10.3903  -13.3543    0.0000 C   0  0  0  0  0  0  0  0  0  0  0  0
    8.3591  -11.6388    0.0000 C   0  0  0  0  0  0  0  0  0  0  0  0
    9.1471  -13.8046    0.0000 C   0  0  0  0  0  0  0  0  0  0  0  0
    8.1253  -12.9485    0.0000 C   0  0  0  0  0  0  0  0  0  0  0  0
  2  1  2  0
  3  1  1  0
  4  2  1  0
  5  3  2  0
  6  4  2  0
  6  5  1  0
  2  7  1  0
  6  8  1  0
  7  9  1  0
  8 10  1  0
  8 11  2  0
  7 12  2  0
 10 13  1  0
 10 14  1  0
  9 15  1  0
  9 16  1  0
 18 17  2  0
 19 17  1  0
 20 18  1  0
 21 19  2  0
 22 20  2  0
 22 21  1  0
 15 17  1  0
 24 23  2  0
 25 23  1  0
 26 24  1  0
 27 25  2  0
 28 26  2  0
 28 27  1  0
 16 23  1  0
 30 29  2  0
 31 29  1  0
 32 30  1  0
 33 31  2  0
 34 32  2  0
 34 33  1  0
 14 29  1  0
 36 35  2  0
 37 35  1  0
 38 36  1  0
 39 37  2  0
 40 38  2  0
 40 39  1  0
 13 35  1  0
M  END
>  <Name>  (355) 
N&N&N'&N'-tetrabenzylpyridine-2&6-dicarboxamide

>  <logK_La_z=3.0_T=25_I=1.0>  (355) 
5.4

$$$$

     RDKit          2D

 20 20  0  0  0  0  0  0  0  0999 V2000
   15.8780   -9.8628    0.0000 C   0  0  0  0  0  0  0  0  0  0  0  0
   15.8780  -11.1928    0.0000 C   0  0  0  0  0  0  0  0  0  0  0  0
   14.7261   -9.1978    0.0000 C   0  0  0  0  0  0  0  0  0  0  0  0
   14.7261  -11.8578    0.0000 C   0  0  0  0  0  0  0  0  0  0  0  0
   13.5743   -9.8628    0.0000 C   0  0  0  0  0  0  0  0  0  0  0  0
   13.5743  -11.1928    0.0000 C   0  0  0  0  0  0  0  0  0  0  0  0
   17.0298  -11.8578    0.0000 C   0  0  0  0  0  0  0  0  0  0  0  0
   12.4225  -11.8578    0.0000 C   0  0  0  0  0  0  0  0  0  0  0  0
   12.4225  -13.1878    0.0000 O   0  0  0  0  0  0  0  0  0  0  0  0
   17.0298  -13.1878    0.0000 O   0  0  0  0  0  0  0  0  0  0  0  0
   18.1816  -11.1928    0.0000 N   0  0  0  0  0  0  0  0  0  0  0  0
   11.2707  -11.1928    0.0000 N   0  0  0  0  0  0  0  0  0  0  0  0
   11.2707   -9.8628    0.0000 C   0  0  0  0  0  0  0  0  0  0  0  0
   10.1189   -9.1978    0.0000 C   0  0  0  0  0  0  0  0  0  0  0  0
   10.1189  -11.8578    0.0000 C   0  0  0  0  0  0  0  0  0  0  0  0
    8.9671  -11.1928    0.0000 C   0  0  0  0  0  0  0  0  0  0  0  0
   18.1816   -9.8628    0.0000 C   0  0  0  0  0  0  0  0  0  0  0  0
   19.3334   -9.1978    0.0000 C   0  0  0  0  0  0  0  0  0  0  0  0
   19.3334  -11.8578    0.0000 C   0  0  0  0  0  0  0  0  0  0  0  0
   20.4852  -11.1928    0.0000 C   0  0  0  0  0  0  0  0  0  0  0  0
  2  1  2  0
  3  1  1  0
  4  2  1  0
  5  3  2  0
  6  4  2  0
  6  5  1  0
  2  7  1  0
  6  8  1  0
  8  9  2  0
  7 10  2  0
  7 11  1  0
  8 12  1  0
 12 13  1  0
 13 14  1  0
 12 15  1  0
 15 16  1  0
 11 17  1  0
 17 18  1  0
 11 19  1  0
 19 20  1  0
M  END
>  <Name>  (356) 
N&N&N'&N'-tetraethylpyridine-2&6-dicarboxamide

>  <logK_La_z=3.0_T=25_I=1.0>  (356) 
7.4

$$$$

     RDKit          2D

 20 20  0  0  0  0  0  0  0  0999 V2000
   13.8750  -12.4107    0.0000 C   0  0  0  0  0  0  0  0  0  0  0  0
   13.8750  -13.7407    0.0000 C   0  0  0  0  0  0  0  0  0  0  0  0
   12.7231  -11.7457    0.0000 C   0  0  0  0  0  0  0  0  0  0  0  0
   12.7231  -14.4057    0.0000 N   0  0  0  0  0  0  0  0  0  0  0  0
   11.5713  -12.4107    0.0000 C   0  0  0  0  0  0  0  0  0  0  0  0
   11.5713  -13.7407    0.0000 C   0  0  0  0  0  0  0  0  0  0  0  0
   15.0268  -14.4057    0.0000 C   0  0  0  0  0  0  0  0  0  0  0  0
   15.0267  -15.7357    0.0000 O   0  0  0  0  0  0  0  0  0  0  0  0
   16.1786  -13.7407    0.0000 N   0  0  0  0  0  0  0  0  0  0  0  0
   17.3304  -14.4058    0.0000 C   0  0  0  0  0  0  0  0  0  0  0  0
   16.1786  -12.4107    0.0000 C   0  0  0  0  0  0  0  0  0  0  0  0
   17.3305  -11.7458    0.0000 C   0  0  0  0  0  0  0  0  0  0  0  0
   17.3304  -15.7357    0.0000 C   0  0  0  0  0  0  0  0  0  0  0  0
   10.4195  -14.4057    0.0000 C   0  0  0  0  0  0  0  0  0  0  0  0
    9.2677  -13.7406    0.0000 N   0  0  0  0  0  0  0  0  0  0  0  0
   10.4194  -15.7357    0.0000 O   0  0  0  0  0  0  0  0  0  0  0  0
    9.2677  -12.4106    0.0000 C   0  0  0  0  0  0  0  0  0  0  0  0
    8.1158  -14.4056    0.0000 C   0  0  0  0  0  0  0  0  0  0  0  0
   10.4195  -11.7457    0.0000 C   0  0  0  0  0  0  0  0  0  0  0  0
    6.9640  -13.7406    0.0000 C   0  0  0  0  0  0  0  0  0  0  0  0
  2  1  2  0
  3  1  1  0
  4  2  1  0
  5  3  2  0
  6  4  2  0
  6  5  1  0
  2  7  1  0
  7  8  2  0
  7  9  1  0
  9 10  1  0
  9 11  1  0
 11 12  1  0
 10 13  1  0
  6 14  1  0
 14 15  1  0
 14 16  2  0
 15 17  1  0
 15 18  1  0
 17 19  1  0
 18 20  1  0
M  END
>  <Name>  (357) 
N&N&N'&N'-tetra-ethylpyridine-2&6-dicarboxamide

>  <logK_La_z=3.0_T=25_I=1.0>  (357) 
7.4

$$$$

     RDKit          2D

 24 24  0  0  0  0  0  0  0  0999 V2000
   15.3186   -7.4329    0.0000 C   0  0  0  0  0  0  0  0  0  0  0  0
   15.3186   -8.7629    0.0000 C   0  0  0  0  0  0  0  0  0  0  0  0
   14.1668   -6.7679    0.0000 C   0  0  0  0  0  0  0  0  0  0  0  0
   14.1668   -9.4279    0.0000 N   0  0  0  0  0  0  0  0  0  0  0  0
   13.0150   -7.4329    0.0000 C   0  0  0  0  0  0  0  0  0  0  0  0
   13.0150   -8.7629    0.0000 C   0  0  0  0  0  0  0  0  0  0  0  0
   16.4704   -9.4279    0.0000 C   0  0  0  0  0  0  0  0  0  0  0  0
   11.8632   -9.4279    0.0000 C   0  0  0  0  0  0  0  0  0  0  0  0
   17.6222   -8.7629    0.0000 N   0  0  0  0  0  0  0  0  0  0  0  0
   10.7113   -8.7629    0.0000 N   0  0  0  0  0  0  0  0  0  0  0  0
   10.7113   -7.4329    0.0000 C   0  0  0  0  0  0  0  0  0  0  0  0
   11.8632   -6.7679    0.0000 C   0  0  0  0  0  0  0  0  0  0  0  0
    9.5595   -6.7679    0.0000 C   0  0  0  0  0  0  0  0  0  0  0  0
    9.5595   -9.4279    0.0000 C   0  0  0  0  0  0  0  0  0  0  0  0
    8.4077   -8.7629    0.0000 C   0  0  0  0  0  0  0  0  0  0  0  0
    9.5595  -10.7579    0.0000 C   0  0  0  0  0  0  0  0  0  0  0  0
   17.6222   -7.4329    0.0000 C   0  0  0  0  0  0  0  0  0  0  0  0
   18.7740   -6.7679    0.0000 C   0  0  0  0  0  0  0  0  0  0  0  0
   16.4704   -6.7679    0.0000 C   0  0  0  0  0  0  0  0  0  0  0  0
   18.7740   -9.4279    0.0000 C   0  0  0  0  0  0  0  0  0  0  0  0
   18.7740  -10.7579    0.0000 C   0  0  0  0  0  0  0  0  0  0  0  0
   19.9259   -8.7629    0.0000 C   0  0  0  0  0  0  0  0  0  0  0  0
   11.8632  -10.7579    0.0000 O   0  0  0  0  0  0  0  0  0  0  0  0
   16.4704  -10.7579    0.0000 O   0  0  0  0  0  0  0  0  0  0  0  0
  2  1  2  0
  3  1  1  0
  4  2  1  0
  5  3  2  0
  6  4  2  0
  6  5  1  0
  2  7  1  0
  6  8  1  0
  7  9  1  0
  8 10  1  0
 10 11  1  0
 11 12  1  0
 11 13  1  0
 10 14  1  0
 14 15  1  0
 14 16  1  0
  9 17  1  0
 17 18  1  0
 17 19  1  0
  9 20  1  0
 20 21  1  0
 20 22  1  0
  8 23  2  0
  7 24  2  0
M  END
>  <Name>  (358) 
N&N&N'&N'-tetraisopropylpyridine-2&6-dicarboxamide

>  <logK_La_z=3.0_T=25_I=1.0>  (358) 
7.8

$$$$

     RDKit          2D

 24 23  0  0  0  0  0  0  0  0999 V2000
   15.3742  -11.3210    0.0000 O   0  0  0  0  0  0  0  0  0  0  0  0
   16.5260  -10.6560    0.0000 C   0  0  0  0  0  0  0  0  0  0  0  0
   17.6778  -11.3210    0.0000 C   0  0  0  0  0  0  0  0  0  0  0  0
   14.2223  -10.6560    0.0000 C   0  0  0  0  0  0  0  0  0  0  0  0
   13.0705  -11.3210    0.0000 C   0  0  0  0  0  0  0  0  0  0  0  0
   18.8296  -10.6560    0.0000 N   0  0  0  0  0  0  0  0  0  0  0  0
   11.9187  -10.6560    0.0000 N   0  0  0  0  0  0  0  0  0  0  0  0
   18.8296   -9.3260    0.0000 C   0  0  0  0  0  0  0  0  0  0  0  0
   19.9814   -8.6610    0.0000 C   0  0  0  0  0  0  0  0  0  0  0  0
   19.9814  -11.3210    0.0000 C   0  0  0  0  0  0  0  0  0  0  0  0
   19.9814  -12.6510    0.0000 C   0  0  0  0  0  0  0  0  0  0  0  0
   11.9187   -9.3260    0.0000 C   0  0  0  0  0  0  0  0  0  0  0  0
   10.7669   -8.6610    0.0000 C   0  0  0  0  0  0  0  0  0  0  0  0
   10.7669   -7.3310    0.0000 C   0  0  0  0  0  0  0  0  0  0  0  0
   10.7669  -11.3210    0.0000 C   0  0  0  0  0  0  0  0  0  0  0  0
    9.6151  -10.6560    0.0000 C   0  0  0  0  0  0  0  0  0  0  0  0
   19.9814   -7.3310    0.0000 O   0  0  0  0  0  0  0  0  0  0  0  0
   21.1332   -9.3260    0.0000 O   0  0  0  0  0  0  0  0  0  0  0  0
   21.1332  -13.3160    0.0000 O   0  0  0  0  0  0  0  0  0  0  0  0
   18.8296  -13.3160    0.0000 O   0  0  0  0  0  0  0  0  0  0  0  0
    9.6151   -9.3260    0.0000 O   0  0  0  0  0  0  0  0  0  0  0  0
    8.4633  -11.3210    0.0000 O   0  0  0  0  0  0  0  0  0  0  0  0
   11.9187   -6.6660    0.0000 O   0  0  0  0  0  0  0  0  0  0  0  0
    9.6151   -6.6660    0.0000 O   0  0  0  0  0  0  0  0  0  0  0  0
  1  2  1  0
  2  3  1  0
  1  4  1  0
  4  5  1  0
  3  6  1  0
  5  7  1  0
  6  8  1  0
  8  9  1  0
  6 10  1  0
 10 11  1  0
  7 12  1  0
 12 13  1  0
 13 14  1  0
  7 15  1  0
 15 16  1  0
  9 17  1  0
  9 18  2  0
 11 19  2  0
 11 20  1  0
 16 21  1  0
 16 22  2  0
 14 23  2  0
 14 24  1  0
M  END
>  <Name>  (359) 
N-(2-Carboxyethyl)oxybis(ethyleneamine)-N&N'&N'-triacetic

>  <logK_La_z=3.0_T=25_I=1.0>  (359) 
13.31

$$$$

     RDKit          2D

 17 17  0  0  0  0  0  0  0  0999 V2000
   14.6186   -9.1570    0.0000 C   0  0  0  0  0  0  0  0  0  0  0  0
   15.2735   -7.9962    0.0000 C   0  0  0  0  0  0  0  0  0  0  0  0
   13.2947   -9.1570    0.0000 C   0  0  0  0  0  0  0  0  0  0  0  0
   14.6075   -6.8498    0.0000 C   0  0  0  0  0  0  0  0  0  0  0  0
   12.6215   -8.0099    0.0000 C   0  0  0  0  0  0  0  0  0  0  0  0
   13.2778   -6.8547    0.0000 C   0  0  0  0  0  0  0  0  0  0  0  0
   15.3595  -10.2659    0.0000 C   0  0  0  0  0  0  0  0  0  0  0  0
   16.7026  -10.2763    0.0000 N   0  0  0  0  0  0  0  0  0  0  0  0
   17.3752   -9.1615    0.0000 C   0  0  0  0  0  0  0  0  0  0  0  0
   17.3354  -11.4198    0.0000 C   0  0  0  0  0  0  0  0  0  0  0  0
   18.6150   -8.8407    0.0000 C   0  0  0  0  0  0  0  0  0  0  0  0
   18.5720  -11.7670    0.0000 C   0  0  0  0  0  0  0  0  0  0  0  0
   12.6238  -10.3056    0.0000 O   0  0  0  0  0  0  0  0  0  0  0  0
   18.7508   -7.4761    0.0000 O   0  0  0  0  0  0  0  0  0  0  0  0
   19.8292   -9.3390    0.0000 O   0  0  0  0  0  0  0  0  0  0  0  0
   18.6782  -13.1322    0.0000 O   0  0  0  0  0  0  0  0  0  0  0  0
   19.7927  -11.2941    0.0000 O   0  0  0  0  0  0  0  0  0  0  0  0
  2  1  2  0
  3  1  1  0
  4  2  1  0
  5  3  2  0
  6  4  2  0
  6  5  1  0
  1  7  1  0
  7  8  1  0
  8  9  1  0
  8 10  1  0
  9 11  1  0
 10 12  1  0
  3 13  1  0
 11 14  2  0
 11 15  1  0
 12 16  2  0
 12 17  1  0
M  END
>  <Name>  (360) 
N-(2-Hydroxybenzyl)iminodiacetic

>  <logK_La_z=3.0_T=25_I=1.0>  (360) 
11.57

$$$$

     RDKit          2D

  9  8  0  0  1  0  0  0  0  0999 V2000
   10.1923  -11.1393    0.0000 C   0  0  0  0  0  0  0  0  0  0  0  0
   11.7276  -10.2529    0.0000 C   0  0  0  0  0  0  0  0  0  0  0  0
   13.2629  -11.1393    0.0000 C   0  0  0  0  0  0  0  0  0  0  0  0
   14.7983  -10.2529    0.0000 C   0  0  0  0  0  0  0  0  0  0  0  0
   16.3336  -11.1393    0.0000 C   0  0  0  0  0  0  0  0  0  0  0  0
   17.8689  -10.2529    0.0000 C   0  0  0  0  0  0  0  0  0  0  0  0
   16.3336  -12.9121    0.0000 N   0  0  0  0  0  0  0  0  0  0  0  0
   17.8689   -8.4801    0.0000 O   0  0  0  0  0  0  0  0  0  0  0  0
   19.4042  -11.1393    0.0000 O   0  0  0  0  0  0  0  0  0  0  0  0
  1  2  1  0
  2  3  1  0
  3  4  1  0
  4  5  1  0
  5  6  1  0
  5  7  1  1
  6  8  2  0
  6  9  1  0
M  END
>  <Name>  (361) 
Norleucine

>  <logK_La_z=3.0_T=25_I=1.0>  (361) 
3.0

$$$$

     RDKit          2D

 23 22  0  0  0  0  0  0  0  0999 V2000
   13.8389  -13.4961    0.0000 C   0  0  0  0  0  0  0  0  0  0  0  0
   12.2447  -14.4165    0.0000 C   0  0  0  0  0  0  0  0  0  0  0  0
   15.4564  -10.7362    0.0000 C   0  0  0  0  0  0  0  0  0  0  0  0
   15.4554   -8.8815    0.0000 C   0  0  0  0  0  0  0  0  0  0  0  0
   13.8509  -11.6631    0.0000 O   0  0  0  0  0  0  0  0  0  0  0  0
   17.0609   -7.9546    0.0000 N   0  0  0  0  0  0  0  0  0  0  0  0
   12.2453  -16.2714    0.0000 N   0  0  0  0  0  0  0  0  0  0  0  0
   17.0605   -6.1000    0.0000 C   0  0  0  0  0  0  0  0  0  0  0  0
   15.4544   -5.1721    0.0000 C   0  0  0  0  0  0  0  0  0  0  0  0
   18.6670   -8.8825    0.0000 C   0  0  0  0  0  0  0  0  0  0  0  0
   18.6550  -10.7155    0.0000 C   0  0  0  0  0  0  0  0  0  0  0  0
   13.8511  -17.1990    0.0000 C   0  0  0  0  0  0  0  0  0  0  0  0
   13.8517  -19.0539    0.0000 C   0  0  0  0  0  0  0  0  0  0  0  0
   10.6402  -17.1981    0.0000 C   0  0  0  0  0  0  0  0  0  0  0  0
    9.0341  -16.2702    0.0000 C   0  0  0  0  0  0  0  0  0  0  0  0
   13.8489   -6.0990    0.0000 O   0  0  0  0  0  0  0  0  0  0  0  0
   15.4541   -3.3176    0.0000 O   0  0  0  0  0  0  0  0  0  0  0  0
   17.0495  -11.6425    0.0000 O   0  0  0  0  0  0  0  0  0  0  0  0
   20.2611  -11.6435    0.0000 O   0  0  0  0  0  0  0  0  0  0  0  0
   12.2466  -19.9806    0.0000 O   0  0  0  0  0  0  0  0  0  0  0  0
   15.4576  -19.9815    0.0000 O   0  0  0  0  0  0  0  0  0  0  0  0
    9.0461  -14.4371    0.0000 O   0  0  0  0  0  0  0  0  0  0  0  0
    7.4286  -17.1971    0.0000 O   0  0  0  0  0  0  0  0  0  0  0  0
  1  2  1  0
  3  4  1  0
  3  5  1  0
  1  5  1  0
  4  6  1  0
  2  7  1  0
  6  8  1  0
  8  9  1  0
  6 10  1  0
 10 11  1  0
  7 12  1  0
 12 13  1  0
  7 14  1  0
 14 15  1  0
  9 16  1  0
  9 17  2  0
 11 18  1  0
 11 19  2  0
 13 20  1  0
 13 21  2  0
 15 22  1  0
 15 23  2  0
M  END
>  <Name>  (362) 
OBETA

>  <logK_La_z=3.0_T=25_I=1.0>  (362) 
16.89

$$$$

     RDKit          2D

 31 32  0  0  0  0  0  0  0  0999 V2000
   12.7221   -8.6956    0.0000 C   0  0  0  0  0  0  0  0  0  0  0  0
   12.0576   -7.5447    0.0000 N   0  0  0  0  0  0  0  0  0  0  0  0
   12.0567   -9.8473    0.0000 C   0  0  0  0  0  0  0  0  0  0  0  0
   10.7276   -7.5451    0.0000 C   0  0  0  0  0  0  0  0  0  0  0  0
   10.7267   -9.8476    0.0000 C   0  0  0  0  0  0  0  0  0  0  0  0
   10.0623   -8.6967    0.0000 C   0  0  0  0  0  0  0  0  0  0  0  0
   10.0629   -6.3938    0.0000 C   0  0  0  0  0  0  0  0  0  0  0  0
   14.0521   -8.6953    0.0000 C   0  0  0  0  0  0  0  0  0  0  0  0
   14.7165   -9.8462    0.0000 N   0  0  0  0  0  0  0  0  0  0  0  0
   16.0386   -9.8504    0.0000 C   0  0  0  0  0  0  0  0  0  0  0  0
   16.6987  -10.9938    0.0000 C   0  0  0  0  0  0  0  0  0  0  0  0
   18.6924  -14.4469    0.0000 C   0  0  0  0  0  0  0  0  0  0  0  0
   20.0144  -14.4511    0.0000 C   0  0  0  0  0  0  0  0  0  0  0  0
   18.0279  -13.2959    0.0000 C   0  0  0  0  0  0  0  0  0  0  0  0
   20.6797  -13.2994    0.0000 C   0  0  0  0  0  0  0  0  0  0  0  0
   18.6853  -12.1489    0.0000 C   0  0  0  0  0  0  0  0  0  0  0  0
   20.0153  -12.1485    0.0000 N   0  0  0  0  0  0  0  0  0  0  0  0
   22.0097  -13.2991    0.0000 C   0  0  0  0  0  0  0  0  0  0  0  0
   18.0206  -10.9976    0.0000 N   0  0  0  0  0  0  0  0  0  0  0  0
   18.6861   -9.8463    0.0000 C   0  0  0  0  0  0  0  0  0  0  0  0
   18.0260   -8.7030    0.0000 C   0  0  0  0  0  0  0  0  0  0  0  0
   14.0512  -10.9978    0.0000 C   0  0  0  0  0  0  0  0  0  0  0  0
   14.7113  -12.1412    0.0000 C   0  0  0  0  0  0  0  0  0  0  0  0
   16.0411  -12.1404    0.0000 O   0  0  0  0  0  0  0  0  0  0  0  0
   14.0458  -13.2924    0.0000 O   0  0  0  0  0  0  0  0  0  0  0  0
   16.6960   -8.7033    0.0000 O   0  0  0  0  0  0  0  0  0  0  0  0
   18.6913   -7.5514    0.0000 O   0  0  0  0  0  0  0  0  0  0  0  0
   22.6750  -12.1475    0.0000 O   0  0  0  0  0  0  0  0  0  0  0  0
   22.6742  -14.4500    0.0000 O   0  0  0  0  0  0  0  0  0  0  0  0
   10.7284   -5.2425    0.0000 O   0  0  0  0  0  0  0  0  0  0  0  0
    8.7331   -6.3945    0.0000 O   0  0  0  0  0  0  0  0  0  0  0  0
  2  1  2  0
  3  1  1  0
  4  2  1  0
  5  3  2  0
  6  4  2  0
  6  5  1  0
  4  7  1  0
  1  8  1  0
  8  9  1  0
  9 10  1  0
 10 11  1  0
 13 12  2  0
 14 12  1  0
 15 13  1  0
 16 14  2  0
 17 15  2  0
 17 16  1  0
 15 18  1  0
 16 19  1  0
 11 19  1  0
 19 20  1  0
 20 21  1  0
  9 22  1  0
 22 23  1  0
 23 24  2  0
 23 25  1  0
 21 26  2  0
 21 27  1  0
 18 28  2  0
 18 29  1  0
  7 30  1  0
  7 31  2  0
M  END
>  <Name>  (363) 
octapa

>  <logK_La_z=3.0_T=25_I=1.0>  (363) 
19.92

$$$$

     RDKit          2D

  6  5  0  0  0  0  0  0  0  0999 V2000
   11.2810   -7.9880    0.0000 C   0  0  0  0  0  0  0  0  0  0  0  0
   12.6110   -7.9880    0.0000 C   0  0  0  0  0  0  0  0  0  0  0  0
   13.2760   -9.1398    0.0000 O   0  0  0  0  0  0  0  0  0  0  0  0
   13.2760   -6.8362    0.0000 C   0  0  0  0  0  0  0  0  0  0  0  0
   10.6160   -6.8362    0.0000 C   0  0  0  0  0  0  0  0  0  0  0  0
   10.6160   -9.1398    0.0000 O   0  0  0  0  0  0  0  0  0  0  0  0
  1  2  1  0
  2  3  2  0
  2  4  1  0
  1  5  1  0
  1  6  2  0
M  END
>  <Name>  (364) 
Oxalic

>  <logK_La_z=3.0_T=25_I=1.0>  (364) 
4.94

$$$$

     RDKit          2D

 18 20  0  0  0  0  0  0  0  0999 V2000
   17.0325   -7.4901    0.0000 C   0  0  0  0  0  0  0  0  0  0  0  0
   16.3676   -8.6419    0.0000 C   0  0  0  0  0  0  0  0  0  0  0  0
   16.3676   -6.3383    0.0000 C   0  0  0  0  0  0  0  0  0  0  0  0
   15.0376   -8.6419    0.0000 C   0  0  0  0  0  0  0  0  0  0  0  0
   15.0376   -6.3383    0.0000 C   0  0  0  0  0  0  0  0  0  0  0  0
   14.3726   -7.4901    0.0000 C   0  0  0  0  0  0  0  0  0  0  0  0
   18.3625   -7.4901    0.0000 C   0  0  0  0  0  0  0  0  0  0  0  0
   19.0275   -8.6419    0.0000 C   0  0  0  0  0  0  0  0  0  0  0  0
   17.0325   -9.7937    0.0000 N   0  0  0  0  0  0  0  0  0  0  0  0
   18.3625   -9.7937    0.0000 C   0  0  0  0  0  0  0  0  0  0  0  0
   14.3726   -9.7937    0.0000 N   0  0  0  0  0  0  0  0  0  0  0  0
   13.0426   -9.7937    0.0000 C   0  0  0  0  0  0  0  0  0  0  0  0
   13.0426   -7.4901    0.0000 C   0  0  0  0  0  0  0  0  0  0  0  0
   12.3776   -8.6419    0.0000 C   0  0  0  0  0  0  0  0  0  0  0  0
   12.3776  -10.9454    0.0000 C   0  0  0  0  0  0  0  0  0  0  0  0
   19.0275  -10.9454    0.0000 C   0  0  0  0  0  0  0  0  0  0  0  0
   13.0426  -12.0972    0.0000 O   0  0  0  0  0  0  0  0  0  0  0  0
   18.3625  -12.0972    0.0000 O   0  0  0  0  0  0  0  0  0  0  0  0
  3  1  2  0
  4  2  2  0
  5  3  1  0
  6  5  2  0
  7  1  1  0
  2  1  1  0
  8  7  2  0
  9  2  1  0
 10  8  1  0
 10  9  2  0
 11  4  1  0
  6  4  1  0
 12 11  2  0
 13  6  1  0
 14 12  1  0
 14 13  2  0
 12 15  1  0
 10 16  1  0
 15 17  1  0
 16 18  1  0
M  END
>  <Name>  (365) 
PDALC

>  <logK_La_z=3.0_T=25_I=1.0>  (365) 
5.34

$$$$

     RDKit          2D

 20 22  0  0  0  0  0  0  0  0999 V2000
   23.5554  -11.0314    0.0000 C   0  0  0  0  0  0  0  0  0  0  0  0
   22.8904  -12.1832    0.0000 C   0  0  0  0  0  0  0  0  0  0  0  0
   22.8904   -9.8796    0.0000 C   0  0  0  0  0  0  0  0  0  0  0  0
   21.5604  -12.1832    0.0000 C   0  0  0  0  0  0  0  0  0  0  0  0
   21.5604   -9.8796    0.0000 C   0  0  0  0  0  0  0  0  0  0  0  0
   20.8955  -11.0314    0.0000 C   0  0  0  0  0  0  0  0  0  0  0  0
   24.8854  -11.0314    0.0000 C   0  0  0  0  0  0  0  0  0  0  0  0
   25.5503  -12.1832    0.0000 C   0  0  0  0  0  0  0  0  0  0  0  0
   23.5554  -13.3350    0.0000 N   0  0  0  0  0  0  0  0  0  0  0  0
   24.8854  -13.3350    0.0000 C   0  0  0  0  0  0  0  0  0  0  0  0
   20.8955  -13.3350    0.0000 N   0  0  0  0  0  0  0  0  0  0  0  0
   19.5655  -13.3350    0.0000 C   0  0  0  0  0  0  0  0  0  0  0  0
   19.5655  -11.0314    0.0000 C   0  0  0  0  0  0  0  0  0  0  0  0
   18.9005  -12.1832    0.0000 C   0  0  0  0  0  0  0  0  0  0  0  0
   18.9005  -14.4868    0.0000 C   0  0  0  0  0  0  0  0  0  0  0  0
   25.5504  -14.4868    0.0000 C   0  0  0  0  0  0  0  0  0  0  0  0
   17.5705  -14.4868    0.0000 N   0  0  0  0  0  0  0  0  0  0  0  0
   26.8803  -14.4868    0.0000 N   0  0  0  0  0  0  0  0  0  0  0  0
   19.5655  -15.6386    0.0000 O   0  0  0  0  0  0  0  0  0  0  0  0
   24.8854  -15.6386    0.0000 O   0  0  0  0  0  0  0  0  0  0  0  0
  3  1  2  0
  4  2  2  0
  5  3  1  0
  6  5  2  0
  7  1  1  0
  2  1  1  0
  8  7  2  0
  9  2  1  0
 10  8  1  0
 10  9  2  0
 11  4  1  0
  6  4  1  0
 12 11  2  0
 13  6  1  0
 14 12  1  0
 14 13  2  0
 12 15  1  0
 10 16  1  0
 15 17  1  0
 16 18  1  0
 15 19  2  0
 16 20  2  0
M  END
>  <Name>  (366) 
PDAM

>  <logK_La_z=3.0_T=25_I=1.0>  (366) 
3.8

$$$$

     RDKit          2D

 12 12  0  0  1  0  0  0  0  0999 V2000
   10.0420   -7.7076    0.0000 C   0  0  0  0  0  0  0  0  0  0  0  0
   10.0420   -9.0376    0.0000 C   0  0  0  0  0  0  0  0  0  0  0  0
    8.8901   -7.0426    0.0000 C   0  0  0  0  0  0  0  0  0  0  0  0
    8.8901   -9.7026    0.0000 C   0  0  0  0  0  0  0  0  0  0  0  0
    7.7383   -7.7076    0.0000 C   0  0  0  0  0  0  0  0  0  0  0  0
    7.7383   -9.0376    0.0000 C   0  0  0  0  0  0  0  0  0  0  0  0
   11.1938   -7.0426    0.0000 C   0  0  0  0  0  0  0  0  0  0  0  0
   12.3456   -7.7076    0.0000 C   0  0  0  0  0  0  0  0  0  0  0  0
   13.4974   -7.0426    0.0000 C   0  0  0  0  0  0  0  0  0  0  0  0
   12.3456   -9.0376    0.0000 N   0  0  0  0  0  0  0  0  0  0  0  0
   13.4974   -5.7126    0.0000 O   0  0  0  0  0  0  0  0  0  0  0  0
   14.6492   -7.7076    0.0000 O   0  0  0  0  0  0  0  0  0  0  0  0
  2  1  2  0
  3  1  1  0
  4  2  1  0
  5  3  2  0
  6  4  2  0
  6  5  1  0
  1  7  1  0
  7  8  1  0
  8  9  1  0
  8 10  1  1
  9 11  2  0
  9 12  1  0
M  END
>  <Name>  (367) 
Phenylalanine

>  <logK_La_z=3.0_T=25_I=1.0>  (367) 
3.8

$$$$

     RDKit          2D

 40 44  0  0  0  0  0  0  0  0999 V2000
    7.7883   -7.5359    0.0000 C   0  0  0  0  0  0  0  0  0  0  0  0
    7.7970   -8.8502    0.0000 C   0  0  0  0  0  0  0  0  0  0  0  0
    6.6370   -6.8712    0.0000 C   0  0  0  0  0  0  0  0  0  0  0  0
    6.6454   -9.5155    0.0000 C   0  0  0  0  0  0  0  0  0  0  0  0
    5.4948   -7.5210    0.0000 C   0  0  0  0  0  0  0  0  0  0  0  0
    5.4941   -8.8508    0.0000 C   0  0  0  0  0  0  0  0  0  0  0  0
   13.5368   -9.5247    0.0000 C   0  0  0  0  0  0  0  0  0  0  0  0
   13.5365  -10.8547    0.0000 C   0  0  0  0  0  0  0  0  0  0  0  0
   12.3935   -8.8646    0.0000 C   0  0  0  0  0  0  0  0  0  0  0  0
   12.3939  -11.5042    0.0000 N   0  0  0  0  0  0  0  0  0  0  0  0
   11.2419   -9.5299    0.0000 C   0  0  0  0  0  0  0  0  0  0  0  0
   11.2506  -10.8442    0.0000 C   0  0  0  0  0  0  0  0  0  0  0  0
   14.6878  -11.5194    0.0000 C   0  0  0  0  0  0  0  0  0  0  0  0
   10.0990  -11.5094    0.0000 C   0  0  0  0  0  0  0  0  0  0  0  0
    8.9480  -10.8449    0.0000 N   0  0  0  0  0  0  0  0  0  0  0  0
   15.8395  -10.8541    0.0000 N   0  0  0  0  0  0  0  0  0  0  0  0
   10.0984  -12.8398    0.0000 O   0  0  0  0  0  0  0  0  0  0  0  0
   14.6966  -12.8337    0.0000 O   0  0  0  0  0  0  0  0  0  0  0  0
    8.9484   -9.5149    0.0000 C   0  0  0  0  0  0  0  0  0  0  0  0
    7.7962  -11.5106    0.0000 C   0  0  0  0  0  0  0  0  0  0  0  0
   15.8400   -9.5237    0.0000 C   0  0  0  0  0  0  0  0  0  0  0  0
   16.8645  -11.7014    0.0000 C   0  0  0  0  0  0  0  0  0  0  0  0
   16.9917   -8.8585    0.0000 C   0  0  0  0  0  0  0  0  0  0  0  0
   16.9920   -7.5285    0.0000 C   0  0  0  0  0  0  0  0  0  0  0  0
   18.1426   -9.5230    0.0000 C   0  0  0  0  0  0  0  0  0  0  0  0
   18.1437   -6.8632    0.0000 C   0  0  0  0  0  0  0  0  0  0  0  0
   19.2943   -8.8577    0.0000 C   0  0  0  0  0  0  0  0  0  0  0  0
   19.2946   -7.5277    0.0000 C   0  0  0  0  0  0  0  0  0  0  0  0
   16.6309  -13.0097    0.0000 C   0  0  0  0  0  0  0  0  0  0  0  0
   15.3893  -13.4590    0.0000 C   0  0  0  0  0  0  0  0  0  0  0  0
   17.6518  -13.8648    0.0000 C   0  0  0  0  0  0  0  0  0  0  0  0
   15.1636  -14.7713    0.0000 C   0  0  0  0  0  0  0  0  0  0  0  0
   17.4306  -15.1695    0.0000 C   0  0  0  0  0  0  0  0  0  0  0  0
   16.1843  -15.6268    0.0000 C   0  0  0  0  0  0  0  0  0  0  0  0
    7.7958  -12.8406    0.0000 C   0  0  0  0  0  0  0  0  0  0  0  0
    6.6442  -13.5059    0.0000 C   0  0  0  0  0  0  0  0  0  0  0  0
    8.9468  -13.5051    0.0000 C   0  0  0  0  0  0  0  0  0  0  0  0
    6.6439  -14.8359    0.0000 C   0  0  0  0  0  0  0  0  0  0  0  0
    8.9465  -14.8351    0.0000 C   0  0  0  0  0  0  0  0  0  0  0  0
    7.7948  -15.5004    0.0000 C   0  0  0  0  0  0  0  0  0  0  0  0
  2  1  2  0
  3  1  1  0
  4  2  1  0
  5  3  2  0
  6  4  2  0
  6  5  1  0
  8  7  2  0
  9  7  1  0
 10  8  1  0
 11  9  2  0
 12 10  2  0
 12 11  1  0
  8 13  1  0
 12 14  1  0
 14 15  1  0
 13 16  1  0
 14 17  2  0
 13 18  2  0
 15 19  1  0
 15 20  1  0
 16 21  1  0
 16 22  1  0
 24 23  2  0
 25 23  1  0
 26 24  1  0
 27 25  2  0
 28 26  2  0
 28 27  1  0
 21 23  1  0
 30 29  2  0
 31 29  1  0
 32 30  1  0
 33 31  2  0
 34 32  2  0
 34 33  1  0
 22 29  1  0
 36 35  2  0
 37 35  1  0
 38 36  1  0
 39 37  2  0
 40 38  2  0
 40 39  1  0
 20 35  1  0
  2 19  1  0
M  END
>  <Name>  (368) 
PyBn2

>  <logK_La_z=3.0_T=25_I=1.0>  (368) 
5.4

$$$$

     RDKit          2D

 20 20  0  0  0  0  0  0  0  0999 V2000
   15.0751   -8.7545    0.0000 C   0  0  0  0  0  0  0  0  0  0  0  0
   15.0791  -10.0767    0.0000 C   0  0  0  0  0  0  0  0  0  0  0  0
   13.9318   -8.0945    0.0000 C   0  0  0  0  0  0  0  0  0  0  0  0
   13.9320  -10.7343    0.0000 N   0  0  0  0  0  0  0  0  0  0  0  0
   12.7847   -8.7521    0.0000 C   0  0  0  0  0  0  0  0  0  0  0  0
   12.7888  -10.0743    0.0000 C   0  0  0  0  0  0  0  0  0  0  0  0
   16.2305  -10.7415    0.0000 C   0  0  0  0  0  0  0  0  0  0  0  0
   11.6372  -10.7397    0.0000 C   0  0  0  0  0  0  0  0  0  0  0  0
   10.4858  -10.0749    0.0000 N   0  0  0  0  0  0  0  0  0  0  0  0
   17.3775  -10.0839    0.0000 N   0  0  0  0  0  0  0  0  0  0  0  0
   11.6367  -12.0697    0.0000 O   0  0  0  0  0  0  0  0  0  0  0  0
   16.2345  -12.0637    0.0000 O   0  0  0  0  0  0  0  0  0  0  0  0
   10.4863   -8.7449    0.0000 C   0  0  0  0  0  0  0  0  0  0  0  0
    9.3352   -8.0803    0.0000 C   0  0  0  0  0  0  0  0  0  0  0  0
    9.3342  -10.7403    0.0000 C   0  0  0  0  0  0  0  0  0  0  0  0
    8.1831  -10.0758    0.0000 C   0  0  0  0  0  0  0  0  0  0  0  0
   17.3780   -8.7539    0.0000 C   0  0  0  0  0  0  0  0  0  0  0  0
   18.5296   -8.0885    0.0000 C   0  0  0  0  0  0  0  0  0  0  0  0
   18.5286  -10.7485    0.0000 C   0  0  0  0  0  0  0  0  0  0  0  0
   19.6802  -10.0830    0.0000 C   0  0  0  0  0  0  0  0  0  0  0  0
  2  1  2  0
  3  1  1  0
  4  2  1  0
  5  3  2  0
  6  4  2  0
  6  5  1  0
  2  7  1  0
  6  8  1  0
  8  9  1  0
  7 10  1  0
  8 11  2  0
  7 12  2  0
  9 13  1  0
 13 14  1  0
  9 15  1  0
 15 16  1  0
 10 17  1  0
 17 18  1  0
 10 19  1  0
 19 20  1  0
M  END
>  <Name>  (369) 
PyEt2

>  <logK_La_z=3.0_T=25_I=1.0>  (369) 
7.4

$$$$

     RDKit          2D

 24 24  0  0  0  0  0  0  0  0999 V2000
   15.1316   -9.7748    0.0000 C   0  0  0  0  0  0  0  0  0  0  0  0
   15.1316  -11.1048    0.0000 C   0  0  0  0  0  0  0  0  0  0  0  0
   13.9797   -9.1098    0.0000 C   0  0  0  0  0  0  0  0  0  0  0  0
   13.9797  -11.7698    0.0000 N   0  0  0  0  0  0  0  0  0  0  0  0
   12.8279   -9.7748    0.0000 C   0  0  0  0  0  0  0  0  0  0  0  0
   12.8279  -11.1048    0.0000 C   0  0  0  0  0  0  0  0  0  0  0  0
   16.2834  -11.7698    0.0000 C   0  0  0  0  0  0  0  0  0  0  0  0
   11.6761  -11.7698    0.0000 C   0  0  0  0  0  0  0  0  0  0  0  0
   10.5243  -11.1048    0.0000 N   0  0  0  0  0  0  0  0  0  0  0  0
   17.4352  -11.1048    0.0000 N   0  0  0  0  0  0  0  0  0  0  0  0
   11.6761  -13.0998    0.0000 O   0  0  0  0  0  0  0  0  0  0  0  0
   16.2834  -13.0998    0.0000 O   0  0  0  0  0  0  0  0  0  0  0  0
   10.5243   -9.7748    0.0000 C   0  0  0  0  0  0  0  0  0  0  0  0
    9.3725   -9.1098    0.0000 C   0  0  0  0  0  0  0  0  0  0  0  0
    9.3725  -11.7698    0.0000 C   0  0  0  0  0  0  0  0  0  0  0  0
    8.2207  -11.1048    0.0000 C   0  0  0  0  0  0  0  0  0  0  0  0
   17.4352   -9.7748    0.0000 C   0  0  0  0  0  0  0  0  0  0  0  0
   18.5870   -9.1098    0.0000 C   0  0  0  0  0  0  0  0  0  0  0  0
   18.5870  -11.7698    0.0000 C   0  0  0  0  0  0  0  0  0  0  0  0
   19.7388  -11.1048    0.0000 C   0  0  0  0  0  0  0  0  0  0  0  0
   11.6761   -9.1098    0.0000 C   0  0  0  0  0  0  0  0  0  0  0  0
    9.3725  -13.0998    0.0000 C   0  0  0  0  0  0  0  0  0  0  0  0
   16.2834   -9.1098    0.0000 C   0  0  0  0  0  0  0  0  0  0  0  0
   18.5870  -13.0998    0.0000 C   0  0  0  0  0  0  0  0  0  0  0  0
  2  1  2  0
  3  1  1  0
  4  2  1  0
  5  3  2  0
  6  4  2  0
  6  5  1  0
  2  7  1  0
  6  8  1  0
  8  9  1  0
  7 10  1  0
  8 11  2  0
  7 12  2  0
  9 13  1  0
 13 14  1  0
  9 15  1  0
 15 16  1  0
 10 17  1  0
 17 18  1  0
 10 19  1  0
 19 20  1  0
 13 21  1  0
 15 22  1  0
 17 23  1  0
 19 24  1  0
M  END
>  <Name>  (370) 
PyiPr2

>  <logK_La_z=3.0_T=25_I=1.0>  (370) 
7.8

$$$$

     RDKit          2D

  8  8  0  0  0  0  0  0  0  0999 V2000
   12.6190   -9.6665    0.0000 C   0  0  0  0  0  0  0  0  0  0  0  0
   12.6190  -10.9965    0.0000 C   0  0  0  0  0  0  0  0  0  0  0  0
   11.4672   -9.0015    0.0000 C   0  0  0  0  0  0  0  0  0  0  0  0
   11.4672  -11.6615    0.0000 C   0  0  0  0  0  0  0  0  0  0  0  0
   10.3154   -9.6665    0.0000 C   0  0  0  0  0  0  0  0  0  0  0  0
   10.3154  -10.9965    0.0000 C   0  0  0  0  0  0  0  0  0  0  0  0
   13.7708  -11.6615    0.0000 O   0  0  0  0  0  0  0  0  0  0  0  0
   11.4672  -12.9915    0.0000 O   0  0  0  0  0  0  0  0  0  0  0  0
  2  1  2  0
  3  1  1  0
  4  2  1  0
  5  3  2  0
  6  4  2  0
  6  5  1  0
  2  7  1  0
  4  8  1  0
M  END
>  <Name>  (371) 
Pyrocatechol

>  <logK_La_z=3.0_T=25_I=1.0>  (371) 
7.24

$$$$

     RDKit          2D

 13 13  0  0  1  0  0  0  0  0999 V2000
   12.6171  -10.7102    0.0000 C   0  0  0  0  0  0  0  0  0  0  0  0
   12.6171  -12.0402    0.0000 C   0  0  0  0  0  0  0  0  0  0  0  0
   11.4652  -10.0452    0.0000 C   0  0  0  0  0  0  0  0  0  0  0  0
   11.4652  -12.7052    0.0000 C   0  0  0  0  0  0  0  0  0  0  0  0
   10.3134  -10.7102    0.0000 C   0  0  0  0  0  0  0  0  0  0  0  0
   10.3134  -12.0402    0.0000 C   0  0  0  0  0  0  0  0  0  0  0  0
   12.1302   -8.8934    0.0000 C   0  0  0  0  0  0  0  0  0  0  0  0
   13.7689  -12.7052    0.0000 O   0  0  0  0  0  0  0  0  0  0  0  0
   13.4602   -8.8934    0.0000 O   0  0  0  0  0  0  0  0  0  0  0  0
   11.4652   -7.7416    0.0000 O   0  0  0  0  0  0  0  0  0  0  0  0
   10.8002   -8.8934    0.0000 O   0  0  0  0  0  0  0  0  0  0  0  0
    9.1616  -12.7052    0.0000 O   0  0  0  0  0  0  0  0  0  0  0  0
   11.4652  -14.0352    0.0000 O   0  0  0  0  0  0  0  0  0  0  0  0
  2  1  1  0
  3  1  1  0
  4  2  1  0
  5  3  1  0
  6  4  1  0
  6  5  1  0
  3  7  1  0
  2  8  1  1
  7  9  1  0
  7 10  2  0
  3 11  1  6
  6 12  1  6
  4 13  1  6
M  END
>  <Name>  (372) 
Quinic

>  <logK_La_z=3.0_T=25_I=1.0>  (372) 
2.73

$$$$

     RDKit          2D

 10 10  0  0  0  0  0  0  0  0999 V2000
   14.0220   -8.1322    0.0000 C   0  0  0  0  0  0  0  0  0  0  0  0
   14.0220   -9.4622    0.0000 C   0  0  0  0  0  0  0  0  0  0  0  0
   12.8702   -7.4672    0.0000 C   0  0  0  0  0  0  0  0  0  0  0  0
   12.8702  -10.1272    0.0000 C   0  0  0  0  0  0  0  0  0  0  0  0
   11.7184   -8.1322    0.0000 C   0  0  0  0  0  0  0  0  0  0  0  0
   11.7184   -9.4622    0.0000 C   0  0  0  0  0  0  0  0  0  0  0  0
   15.1738   -7.4672    0.0000 C   0  0  0  0  0  0  0  0  0  0  0  0
   12.8702   -6.1372    0.0000 O   0  0  0  0  0  0  0  0  0  0  0  0
   15.1738   -6.1372    0.0000 O   0  0  0  0  0  0  0  0  0  0  0  0
   16.3257   -8.1322    0.0000 O   0  0  0  0  0  0  0  0  0  0  0  0
  2  1  2  0
  3  1  1  0
  4  2  1  0
  5  3  2  0
  6  4  2  0
  6  5  1  0
  1  7  1  0
  3  8  1  0
  7  9  2  0
  7 10  1  0
M  END
>  <Name>  (373) 
Salicylic

>  <logK_La_z=3.0_T=25_I=1.0>  (373) 
9.64

$$$$

     RDKit          2D

  7  6  0  0  1  0  0  0  0  0999 V2000
   10.1670   -9.1163    0.0000 C   0  0  0  0  0  0  0  0  0  0  0  0
   11.1207  -10.7682    0.0000 C   0  0  0  0  0  0  0  0  0  0  0  0
   13.0282  -10.7682    0.0000 C   0  0  0  0  0  0  0  0  0  0  0  0
   10.1670  -12.4201    0.0000 N   0  0  0  0  0  0  0  0  0  0  0  0
    8.2595   -9.1163    0.0000 O   0  0  0  0  0  0  0  0  0  0  0  0
   13.9819   -9.1163    0.0000 O   0  0  0  0  0  0  0  0  0  0  0  0
   13.9819  -12.4201    0.0000 O   0  0  0  0  0  0  0  0  0  0  0  0
  1  2  1  0
  2  3  1  0
  2  4  1  1
  1  5  1  0
  3  6  2  0
  3  7  1  0
M  END
>  <Name>  (374) 
Serine

>  <logK_La_z=3.0_T=25_I=1.0>  (374) 
3.0

$$$$

     RDKit          2D

  5  4  0  0  0  0  0  0  0  0999 V2000
   14.0772  -12.3706    0.0000 S   0  0  0  0  0  0  0  0  0  0  0  0
   14.0772  -10.7503    0.0000 O   0  0  0  0  0  0  0  0  0  0  0  0
   15.6975  -12.3706    0.0000 O   0  0  0  0  0  0  0  0  0  0  0  0
   12.4568  -12.3706    0.0000 O   0  0  0  0  0  0  0  0  0  0  0  0
   14.0772  -13.9909    0.0000 O   0  0  0  0  0  0  0  0  0  0  0  0
  1  2  1  0
  1  3  2  0
  1  4  1  0
  1  5  2  0
M  CHG  2   2  -1   4  -1
M  END
>  <Name>  (375) 
Sulfate

>  <logK_La_z=3.0_T=25_I=1.0>  (375) 
3.5

$$$$

     RDKit          2D

 15 16  0  0  0  0  0  0  0  0999 V2000
   10.7371  -10.0912    0.0000 C   0  0  0  0  0  0  0  0  0  0  0  0
   10.7371  -11.4212    0.0000 C   0  0  0  0  0  0  0  0  0  0  0  0
    9.5853   -9.4262    0.0000 C   0  0  0  0  0  0  0  0  0  0  0  0
    9.5853  -12.0862    0.0000 C   0  0  0  0  0  0  0  0  0  0  0  0
    8.4335  -10.0912    0.0000 N   0  0  0  0  0  0  0  0  0  0  0  0
    8.4335  -11.4212    0.0000 C   0  0  0  0  0  0  0  0  0  0  0  0
   11.8889   -8.0962    0.0000 C   0  0  0  0  0  0  0  0  0  0  0  0
   11.8889   -9.4262    0.0000 C   0  0  0  0  0  0  0  0  0  0  0  0
   10.7371   -7.4312    0.0000 C   0  0  0  0  0  0  0  0  0  0  0  0
    9.5853   -8.0962    0.0000 C   0  0  0  0  0  0  0  0  0  0  0  0
   13.0407  -10.0912    0.0000 S   0  0  0  0  0  0  0  0  0  0  0  0
    8.4335   -7.4312    0.0000 O   0  0  0  0  0  0  0  0  0  0  0  0
   13.7057   -8.9394    0.0000 O   0  0  0  0  0  0  0  0  0  0  0  0
   12.3757  -11.2430    0.0000 O   0  0  0  0  0  0  0  0  0  0  0  0
   14.1925  -10.7562    0.0000 O   0  0  0  0  0  0  0  0  0  0  0  0
  2  1  2  0
  3  1  1  0
  4  2  1  0
  5  3  2  0
  6  4  2  0
  6  5  1  0
  8  7  1  0
  9  7  2  0
  1  8  1  0
 10  9  1  0
  3 10  1  0
  8 11  1  0
 10 12  1  0
 11 13  2  0
 11 14  2  0
 11 15  1  0
M  END
>  <Name>  (376) 
Sulfoxine

>  <logK_La_z=3.0_T=25_I=1.0>  (376) 
5.63

$$$$

     RDKit          2D

 30 30  0  0  0  0  0  0  0  0999 V2000
   21.2241  -17.1588    0.0000 C   0  0  0  0  0  0  0  0  0  0  0  0
   21.2241  -15.2702    0.0000 C   0  0  0  0  0  0  0  0  0  0  0  0
   20.3894  -13.5585    0.0000 N   0  0  0  0  0  0  0  0  0  0  0  0
   18.9162  -12.3879    0.0000 C   0  0  0  0  0  0  0  0  0  0  0  0
   17.0700  -11.9694    0.0000 C   0  0  0  0  0  0  0  0  0  0  0  0
   15.2303  -12.3961    0.0000 C   0  0  0  0  0  0  0  0  0  0  0  0
   13.7470  -13.5727    0.0000 N   0  0  0  0  0  0  0  0  0  0  0  0
   12.9360  -15.2835    0.0000 C   0  0  0  0  0  0  0  0  0  0  0  0
   12.9360  -17.1721    0.0000 C   0  0  0  0  0  0  0  0  0  0  0  0
   13.7608  -18.8760    0.0000 N   0  0  0  0  0  0  0  0  0  0  0  0
   15.2340  -20.0466    0.0000 C   0  0  0  0  0  0  0  0  0  0  0  0
   17.0900  -20.4729    0.0000 C   0  0  0  0  0  0  0  0  0  0  0  0
   18.9298  -20.0462    0.0000 C   0  0  0  0  0  0  0  0  0  0  0  0
   20.4130  -18.8696    0.0000 N   0  0  0  0  0  0  0  0  0  0  0  0
   21.8735  -12.3818    0.0000 C   0  0  0  0  0  0  0  0  0  0  0  0
   21.5970  -10.5163    0.0000 C   0  0  0  0  0  0  0  0  0  0  0  0
   12.2631  -12.3936    0.0000 C   0  0  0  0  0  0  0  0  0  0  0  0
   12.5348  -10.5284    0.0000 C   0  0  0  0  0  0  0  0  0  0  0  0
   12.2865  -20.0605    0.0000 C   0  0  0  0  0  0  0  0  0  0  0  0
   12.5630  -21.9260    0.0000 C   0  0  0  0  0  0  0  0  0  0  0  0
   21.8969  -20.0487    0.0000 C   0  0  0  0  0  0  0  0  0  0  0  0
   21.6253  -21.9139    0.0000 C   0  0  0  0  0  0  0  0  0  0  0  0
   19.8373   -9.8275    0.0000 O   0  0  0  0  0  0  0  0  0  0  0  0
   23.0692   -9.3134    0.0000 O   0  0  0  0  0  0  0  0  0  0  0  0
   14.2985   -9.8321    0.0000 O   0  0  0  0  0  0  0  0  0  0  0  0
   11.0513   -9.3496    0.0000 O   0  0  0  0  0  0  0  0  0  0  0  0
   14.3228  -22.6148    0.0000 O   0  0  0  0  0  0  0  0  0  0  0  0
   11.0909  -23.1289    0.0000 O   0  0  0  0  0  0  0  0  0  0  0  0
   19.8615  -22.6102    0.0000 O   0  0  0  0  0  0  0  0  0  0  0  0
   23.1088  -23.0927    0.0000 O   0  0  0  0  0  0  0  0  0  0  0  0
  1  2  1  0
  3  4  1  0
  4  5  1  0
  5  6  1  0
  6  7  1  0
  7  8  1  0
  8  9  1  0
  9 10  1  0
 10 11  1  0
 11 12  1  0
 12 13  1  0
 13 14  1  0
  2  3  1  0
  3 15  1  0
 15 16  1  0
  7 17  1  0
 17 18  1  0
 10 19  1  0
 19 20  1  0
  1 14  1  0
 14 21  1  0
 21 22  1  0
 16 23  2  0
 16 24  1  0
 18 25  1  0
 18 26  2  0
 20 27  1  0
 20 28  2  0
 22 29  2  0
 22 30  1  0
M  END
>  <Name>  (377) 
TETA

>  <logK_La_z=3.0_T=25_I=1.0>  (377) 
12.15

$$$$

     RDKit          2D

 24 24  0  0  0  0  0  0  0  0999 V2000
   15.6691  -13.1583    0.0000 C   0  0  0  0  0  0  0  0  0  0  0  0
   15.6685  -14.4883    0.0000 C   0  0  0  0  0  0  0  0  0  0  0  0
   14.5259  -12.4983    0.0000 C   0  0  0  0  0  0  0  0  0  0  0  0
   14.5261  -15.1380    0.0000 C   0  0  0  0  0  0  0  0  0  0  0  0
   13.3740  -13.1636    0.0000 C   0  0  0  0  0  0  0  0  0  0  0  0
   13.3829  -14.4779    0.0000 C   0  0  0  0  0  0  0  0  0  0  0  0
   16.8243  -15.1453    0.0000 C   0  0  0  0  0  0  0  0  0  0  0  0
   12.2311  -15.1432    0.0000 C   0  0  0  0  0  0  0  0  0  0  0  0
   11.0801  -14.4787    0.0000 N   0  0  0  0  0  0  0  0  0  0  0  0
   17.9714  -14.4875    0.0000 N   0  0  0  0  0  0  0  0  0  0  0  0
   11.0803  -13.1485    0.0000 C   0  0  0  0  0  0  0  0  0  0  0  0
    9.9290  -12.4838    0.0000 C   0  0  0  0  0  0  0  0  0  0  0  0
   17.9719  -13.1575    0.0000 C   0  0  0  0  0  0  0  0  0  0  0  0
   19.1235  -12.4920    0.0000 C   0  0  0  0  0  0  0  0  0  0  0  0
   19.1227  -15.1522    0.0000 C   0  0  0  0  0  0  0  0  0  0  0  0
    9.9282  -15.1440    0.0000 C   0  0  0  0  0  0  0  0  0  0  0  0
   20.2745  -14.4869    0.0000 P   0  0  0  0  0  0  0  0  0  0  0  0
    8.7769  -14.4793    0.0000 P   0  0  0  0  0  0  0  0  0  0  0  0
    9.4416  -13.3280    0.0000 O   0  0  0  0  0  0  0  0  0  0  0  0
    8.1122  -15.6306    0.0000 O   0  0  0  0  0  0  0  0  0  0  0  0
    7.6256  -13.8146    0.0000 O   0  0  0  0  0  0  0  0  0  0  0  0
   19.6090  -13.3354    0.0000 O   0  0  0  0  0  0  0  0  0  0  0  0
   20.9400  -15.6385    0.0000 O   0  0  0  0  0  0  0  0  0  0  0  0
   21.4260  -13.8214    0.0000 O   0  0  0  0  0  0  0  0  0  0  0  0
  2  1  2  0
  3  1  1  0
  4  2  1  0
  5  3  2  0
  6  4  2  0
  6  5  1  0
  2  7  1  0
  6  8  1  0
  8  9  1  0
  7 10  1  0
  9 11  1  0
 11 12  1  0
 10 13  1  0
 13 14  1  0
 10 15  1  0
  9 16  1  0
 15 17  1  0
 16 18  1  0
 18 19  1  0
 18 20  1  0
 18 21  2  0
 17 22  1  0
 17 23  1  0
 17 24  2  0
M  END
>  <Name>  (378) 
tetraphosphonated-pyridine-L2

>  <logK_La_z=3.0_T=25_I=1.0>  (378) 
10.14

$$$$

     RDKit          2D

 27 27  0  0  0  0  0  0  0  0999 V2000
   16.6018  -12.6748    0.0000 C   0  0  0  0  0  0  0  0  0  0  0  0
   16.6055  -13.9969    0.0000 C   0  0  0  0  0  0  0  0  0  0  0  0
   15.4590  -12.0151    0.0000 C   0  0  0  0  0  0  0  0  0  0  0  0
   15.4591  -14.6540    0.0000 C   0  0  0  0  0  0  0  0  0  0  0  0
   14.3119  -12.6727    0.0000 C   0  0  0  0  0  0  0  0  0  0  0  0
   14.3164  -13.9943    0.0000 C   0  0  0  0  0  0  0  0  0  0  0  0
   17.7563  -14.6613    0.0000 C   0  0  0  0  0  0  0  0  0  0  0  0
   13.1650  -14.6593    0.0000 C   0  0  0  0  0  0  0  0  0  0  0  0
   12.0145  -13.9950    0.0000 N   0  0  0  0  0  0  0  0  0  0  0  0
   18.9030  -14.0035    0.0000 N   0  0  0  0  0  0  0  0  0  0  0  0
   12.0147  -12.6654    0.0000 C   0  0  0  0  0  0  0  0  0  0  0  0
   10.8639  -12.0010    0.0000 C   0  0  0  0  0  0  0  0  0  0  0  0
   18.9036  -12.6741    0.0000 C   0  0  0  0  0  0  0  0  0  0  0  0
   20.0538  -14.6679    0.0000 C   0  0  0  0  0  0  0  0  0  0  0  0
   10.8631  -14.6601    0.0000 C   0  0  0  0  0  0  0  0  0  0  0  0
   20.0579  -15.9901    0.0000 P   0  0  0  0  0  0  0  0  0  0  0  0
    9.7123  -13.9956    0.0000 P   0  0  0  0  0  0  0  0  0  0  0  0
   10.3767  -12.8448    0.0000 O   0  0  0  0  0  0  0  0  0  0  0  0
    9.0481  -15.1461    0.0000 O   0  0  0  0  0  0  0  0  0  0  0  0
    8.5615  -13.3312    0.0000 O   0  0  0  0  0  0  0  0  0  0  0  0
   18.7331  -15.9815    0.0000 O   0  0  0  0  0  0  0  0  0  0  0  0
   21.3875  -15.9904    0.0000 O   0  0  0  0  0  0  0  0  0  0  0  0
   20.0620  -17.3115    0.0000 O   0  0  0  0  0  0  0  0  0  0  0  0
   20.0546  -12.0088    0.0000 P   0  0  0  0  0  0  0  0  0  0  0  0
   20.7197  -13.1602    0.0000 O   0  0  0  0  0  0  0  0  0  0  0  0
   19.3894  -10.8578    0.0000 O   0  0  0  0  0  0  0  0  0  0  0  0
   21.2058  -11.3442    0.0000 O   0  0  0  0  0  0  0  0  0  0  0  0
  2  1  2  0
  3  1  1  0
  4  2  1  0
  5  3  2  0
  6  4  2  0
  6  5  1  0
  2  7  1  0
  6  8  1  0
  8  9  1  0
  7 10  1  0
  9 11  1  0
 11 12  1  0
 10 13  1  0
 10 14  1  0
  9 15  1  0
 14 16  1  0
 15 17  1  0
 17 18  1  0
 17 19  1  0
 17 20  2  0
 16 21  1  0
 16 22  1  0
 16 23  2  0
 13 24  1  0
 24 25  1  0
 24 26  1  0
 24 27  2  0
M  END
>  <Name>  (379) 
tetraphosphonated-pyridine-L3

>  <logK_La_z=3.0_T=25_I=1.0>  (379) 
16.3

$$$$

     RDKit          2D

 30 30  0  0  0  0  0  0  0  0999 V2000
   15.5644  -14.2399    0.0000 N   0  0  0  0  0  0  0  0  0  0  0  0
    9.0946  -11.8773    0.0000 N   0  0  0  0  0  0  0  0  0  0  0  0
   12.9445  -14.6913    0.0000 C   0  0  0  0  0  0  0  0  0  0  0  0
   13.4045  -13.4433    0.0000 C   0  0  0  0  0  0  0  0  0  0  0  0
   11.6525  -14.9215    0.0000 C   0  0  0  0  0  0  0  0  0  0  0  0
   12.5550  -12.4346    0.0000 N   0  0  0  0  0  0  0  0  0  0  0  0
   10.7940  -13.9034    0.0000 C   0  0  0  0  0  0  0  0  0  0  0  0
   11.2545  -12.6648    0.0000 C   0  0  0  0  0  0  0  0  0  0  0  0
   10.4046  -11.6470    0.0000 C   0  0  0  0  0  0  0  0  0  0  0  0
   14.7145  -13.2221    0.0000 C   0  0  0  0  0  0  0  0  0  0  0  0
    8.6345  -13.1158    0.0000 C   0  0  0  0  0  0  0  0  0  0  0  0
    8.2451  -10.8591    0.0000 C   0  0  0  0  0  0  0  0  0  0  0  0
   15.1039  -15.4879    0.0000 C   0  0  0  0  0  0  0  0  0  0  0  0
   16.8743  -14.0097    0.0000 C   0  0  0  0  0  0  0  0  0  0  0  0
    7.3332  -13.3461    0.0000 P   0  0  0  0  0  0  0  0  0  0  0  0
    8.6965   -9.6111    0.0000 P   0  0  0  0  0  0  0  0  0  0  0  0
   16.1217  -16.3374    0.0000 P   0  0  0  0  0  0  0  0  0  0  0  0
   17.3257  -12.7711    0.0000 P   0  0  0  0  0  0  0  0  0  0  0  0
    7.1034  -12.0451    0.0000 O   0  0  0  0  0  0  0  0  0  0  0  0
    7.5548  -14.6470    0.0000 O   0  0  0  0  0  0  0  0  0  0  0  0
    6.0233  -13.5673    0.0000 O   0  0  0  0  0  0  0  0  0  0  0  0
    9.9445  -10.0625    0.0000 O   0  0  0  0  0  0  0  0  0  0  0  0
    7.4485   -9.1511    0.0000 O   0  0  0  0  0  0  0  0  0  0  0  0
    9.1566   -8.3631    0.0000 O   0  0  0  0  0  0  0  0  0  0  0  0
   16.9802  -15.3286    0.0000 O   0  0  0  0  0  0  0  0  0  0  0  0
   15.2631  -17.3555    0.0000 O   0  0  0  0  0  0  0  0  0  0  0  0
   17.1398  -17.1959    0.0000 O   0  0  0  0  0  0  0  0  0  0  0  0
   16.0777  -12.3106    0.0000 O   0  0  0  0  0  0  0  0  0  0  0  0
   18.5737  -13.2221    0.0000 O   0  0  0  0  0  0  0  0  0  0  0  0
   17.7858  -11.5231    0.0000 O   0  0  0  0  0  0  0  0  0  0  0  0
  4  3  2  0
  5  3  1  0
  6  4  1  0
  7  5  2  0
  8  6  2  0
  8  7  1  0
  8  9  1  0
  2  9  1  0
  4 10  1  0
  1 10  1  0
  2 11  1  0
  2 12  1  0
  1 13  1  0
  1 14  1  0
 11 15  1  0
 12 16  1  0
 13 17  1  0
 14 18  1  0
 15 19  1  0
 15 20  1  0
 15 21  2  0
 16 22  2  0
 16 23  1  0
 16 24  1  0
 17 25  2  0
 17 26  1  0
 17 27  1  0
 18 28  2  0
 18 29  1  0
 18 30  1  0
M  END
>  <Name>  (380) 
tetraphosphonated-pyridine-L4

>  <logK_La_z=3.0_T=25_I=1.0>  (380) 
25.5

$$$$

     RDKit          2D

 16 16  0  0  0  0  0  0  0  0999 V2000
   16.3927   -8.3415    0.0000 C   0  0  0  0  0  0  0  0  0  0  0  0
   15.7277   -9.4933    0.0000 C   0  0  0  0  0  0  0  0  0  0  0  0
   15.7277   -7.1897    0.0000 C   0  0  0  0  0  0  0  0  0  0  0  0
   14.3977   -9.4933    0.0000 C   0  0  0  0  0  0  0  0  0  0  0  0
   14.3977   -7.1897    0.0000 C   0  0  0  0  0  0  0  0  0  0  0  0
   13.7326   -8.3415    0.0000 C   0  0  0  0  0  0  0  0  0  0  0  0
   16.3927  -10.6451    0.0000 S   0  0  0  0  0  0  0  0  0  0  0  0
   12.4026   -8.3415    0.0000 S   0  0  0  0  0  0  0  0  0  0  0  0
   16.3927   -6.0379    0.0000 O   0  0  0  0  0  0  0  0  0  0  0  0
   17.7227   -8.3415    0.0000 O   0  0  0  0  0  0  0  0  0  0  0  0
   17.5445   -9.9801    0.0000 O   0  0  0  0  0  0  0  0  0  0  0  0
   15.2408  -11.3101    0.0000 O   0  0  0  0  0  0  0  0  0  0  0  0
   17.0577  -11.7969    0.0000 O   0  0  0  0  0  0  0  0  0  0  0  0
   12.4026   -7.0115    0.0000 O   0  0  0  0  0  0  0  0  0  0  0  0
   12.4026   -9.6715    0.0000 O   0  0  0  0  0  0  0  0  0  0  0  0
   11.0726   -8.3415    0.0000 O   0  0  0  0  0  0  0  0  0  0  0  0
  2  1  2  0
  3  1  1  0
  4  2  1  0
  5  3  2  0
  6  4  2  0
  6  5  1  0
  2  7  1  0
  6  8  1  0
  3  9  1  0
  1 10  1  0
  7 11  2  0
  7 12  2  0
  7 13  1  0
  8 14  2  0
  8 15  2  0
  8 16  1  0
M  END
>  <Name>  (381) 
Tiron

>  <logK_La_z=3.0_T=25_I=1.0>  (381) 
12.87

$$$$

     RDKit          2D

 22 22  0  0  0  0  0  0  0  0999 V2000
   14.4057  -10.1424    0.0000 C   0  0  0  0  0  0  0  0  0  0  0  0
   13.7407  -11.2942    0.0000 C   0  0  0  0  0  0  0  0  0  0  0  0
   13.7407   -8.9906    0.0000 C   0  0  0  0  0  0  0  0  0  0  0  0
   12.4107  -11.2942    0.0000 C   0  0  0  0  0  0  0  0  0  0  0  0
   12.4107   -8.9906    0.0000 C   0  0  0  0  0  0  0  0  0  0  0  0
   11.7457  -10.1424    0.0000 C   0  0  0  0  0  0  0  0  0  0  0  0
   14.4057   -7.8387    0.0000 N   0  0  0  0  0  0  0  0  0  0  0  0
   11.7457   -7.8387    0.0000 N   0  0  0  0  0  0  0  0  0  0  0  0
   15.7357   -7.8387    0.0000 C   0  0  0  0  0  0  0  0  0  0  0  0
   16.4007   -6.6869    0.0000 C   0  0  0  0  0  0  0  0  0  0  0  0
   16.4007   -8.9906    0.0000 C   0  0  0  0  0  0  0  0  0  0  0  0
   10.4157   -7.8387    0.0000 C   0  0  0  0  0  0  0  0  0  0  0  0
    9.7507   -6.6869    0.0000 C   0  0  0  0  0  0  0  0  0  0  0  0
    9.7507   -8.9906    0.0000 C   0  0  0  0  0  0  0  0  0  0  0  0
   10.4157   -5.5351    0.0000 O   0  0  0  0  0  0  0  0  0  0  0  0
    8.4207   -6.6869    0.0000 O   0  0  0  0  0  0  0  0  0  0  0  0
    8.4207   -8.9906    0.0000 O   0  0  0  0  0  0  0  0  0  0  0  0
   10.4157  -10.1424    0.0000 O   0  0  0  0  0  0  0  0  0  0  0  0
   17.7307   -6.6869    0.0000 O   0  0  0  0  0  0  0  0  0  0  0  0
   15.7357   -5.5351    0.0000 O   0  0  0  0  0  0  0  0  0  0  0  0
   17.7307   -8.9906    0.0000 O   0  0  0  0  0  0  0  0  0  0  0  0
   15.7357  -10.1424    0.0000 O   0  0  0  0  0  0  0  0  0  0  0  0
  2  1  1  0
  3  1  1  0
  4  2  1  0
  5  3  1  0
  6  4  1  0
  6  5  1  0
  3  7  1  0
  5  8  1  0
  7  9  1  0
  9 10  1  0
  9 11  1  0
  8 12  1  0
 12 13  1  0
 12 14  1  0
 13 15  2  0
 13 16  1  0
 14 17  1  0
 14 18  2  0
 10 19  2  0
 10 20  1  0
 11 21  1  0
 11 22  2  0
M  END
>  <Name>  (382) 
trans-1&2-diaminocyclohexane-N&N'-dimalonic

>  <logK_La_z=3.0_T=25_I=1.0>  (382) 
13.93

$$$$

     RDKit          2D

 24 24  0  0  0  0  0  0  0  0999 V2000
   15.1187  -14.1842    0.0000 C   0  0  0  0  0  0  0  0  0  0  0  0
   14.4689  -15.3270    0.0000 C   0  0  0  0  0  0  0  0  0  0  0  0
   14.4540  -13.0328    0.0000 C   0  0  0  0  0  0  0  0  0  0  0  0
   13.1386  -15.3274    0.0000 C   0  0  0  0  0  0  0  0  0  0  0  0
   13.1395  -13.0245    0.0000 C   0  0  0  0  0  0  0  0  0  0  0  0
   12.4739  -14.1760    0.0000 C   0  0  0  0  0  0  0  0  0  0  0  0
   15.1196  -11.8813    0.0000 N   0  0  0  0  0  0  0  0  0  0  0  0
   12.4793  -11.8809    0.0000 N   0  0  0  0  0  0  0  0  0  0  0  0
   16.4451  -11.8731    0.0000 C   0  0  0  0  0  0  0  0  0  0  0  0
   17.1151  -10.7291    0.0000 C   0  0  0  0  0  0  0  0  0  0  0  0
   11.1492  -11.8816    0.0000 C   0  0  0  0  0  0  0  0  0  0  0  0
   10.4844  -10.7302    0.0000 C   0  0  0  0  0  0  0  0  0  0  0  0
   11.1499   -9.5783    0.0000 O   0  0  0  0  0  0  0  0  0  0  0  0
    9.1544  -10.7304    0.0000 O   0  0  0  0  0  0  0  0  0  0  0  0
   16.4505   -9.5780    0.0000 O   0  0  0  0  0  0  0  0  0  0  0  0
   18.4406  -10.7210    0.0000 O   0  0  0  0  0  0  0  0  0  0  0  0
   10.4838  -13.0330    0.0000 C   0  0  0  0  0  0  0  0  0  0  0  0
    9.1537  -13.0337    0.0000 C   0  0  0  0  0  0  0  0  0  0  0  0
    8.4889  -11.8823    0.0000 O   0  0  0  0  0  0  0  0  0  0  0  0
    8.4883  -14.1851    0.0000 O   0  0  0  0  0  0  0  0  0  0  0  0
   17.1097  -13.0243    0.0000 C   0  0  0  0  0  0  0  0  0  0  0  0
   18.4400  -13.0239    0.0000 C   0  0  0  0  0  0  0  0  0  0  0  0
   19.1052  -11.8722    0.0000 O   0  0  0  0  0  0  0  0  0  0  0  0
   19.1048  -14.1753    0.0000 O   0  0  0  0  0  0  0  0  0  0  0  0
  2  1  1  0
  3  1  1  0
  4  2  1  0
  5  3  1  0
  6  4  1  0
  6  5  1  0
  3  7  1  0
  5  8  1  0
  7  9  1  0
  9 10  1  0
  8 11  1  0
 11 12  1  0
 12 13  2  0
 12 14  1  0
 10 15  2  0
 10 16  1  0
 11 17  1  0
 18 19  1  0
 18 20  2  0
 17 18  1  0
  9 21  1  0
 22 23  1  0
 22 24  2  0
 21 22  1  0
M  END
>  <Name>  (383) 
trans-1&2-diaminocyclohexane-N&N'-disuccinic

>  <logK_La_z=3.0_T=25_I=1.0>  (383) 
12.1

$$$$

     RDKit          2D

 29 29  0  0  0  0  0  0  0  0999 V2000
   18.3829  -10.4892    0.0000 N   0  0  0  0  0  0  0  0  0  0  0  0
   19.4330  -12.1440    0.0000 C   0  0  0  0  0  0  0  0  0  0  0  0
   19.5970  -14.1219    0.0000 C   0  0  0  0  0  0  0  0  0  0  0  0
   18.8288  -15.9261    0.0000 N   0  0  0  0  0  0  0  0  0  0  0  0
   17.2930  -17.1655    0.0000 C   0  0  0  0  0  0  0  0  0  0  0  0
   15.3596  -17.5683    0.0000 C   0  0  0  0  0  0  0  0  0  0  0  0
   13.4776  -17.0132    0.0000 N   0  0  0  0  0  0  0  0  0  0  0  0
   12.0558  -15.6609    0.0000 C   0  0  0  0  0  0  0  0  0  0  0  0
   11.4380  -13.7852    0.0000 C   0  0  0  0  0  0  0  0  0  0  0  0
   11.7435  -11.8354    0.0000 N   0  0  0  0  0  0  0  0  0  0  0  0
   12.9218  -10.2680    0.0000 C   0  0  0  0  0  0  0  0  0  0  0  0
   14.7168   -9.4210    0.0000 C   0  0  0  0  0  0  0  0  0  0  0  0
   16.6863   -9.5097    0.0000 C   0  0  0  0  0  0  0  0  0  0  0  0
   19.7419   -9.0561    0.0000 C   0  0  0  0  0  0  0  0  0  0  0  0
   19.1955   -7.1612    0.0000 C   0  0  0  0  0  0  0  0  0  0  0  0
   20.4081  -17.1113    0.0000 C   0  0  0  0  0  0  0  0  0  0  0  0
   22.2158  -16.3479    0.0000 C   0  0  0  0  0  0  0  0  0  0  0  0
   12.4908  -18.7224    0.0000 C   0  0  0  0  0  0  0  0  0  0  0  0
   10.5282  -18.7287    0.0000 C   0  0  0  0  0  0  0  0  0  0  0  0
    9.9274  -11.0603    0.0000 C   0  0  0  0  0  0  0  0  0  0  0  0
    9.6846   -9.1131    0.0000 C   0  0  0  0  0  0  0  0  0  0  0  0
   17.2909   -6.6993    0.0000 O   0  0  0  0  0  0  0  0  0  0  0  0
   20.5593   -5.7461    0.0000 O   0  0  0  0  0  0  0  0  0  0  0  0
   22.4511  -14.3875    0.0000 O   0  0  0  0  0  0  0  0  0  0  0  0
   23.7951  -17.5332    0.0000 O   0  0  0  0  0  0  0  0  0  0  0  0
    9.5404  -17.0190    0.0000 O   0  0  0  0  0  0  0  0  0  0  0  0
    9.5417  -20.4373    0.0000 O   0  0  0  0  0  0  0  0  0  0  0  0
   11.2647   -7.9290    0.0000 O   0  0  0  0  0  0  0  0  0  0  0  0
    7.8686   -8.3380    0.0000 O   0  0  0  0  0  0  0  0  0  0  0  0
  1  2  1  0
  2  3  1  0
  3  4  1  0
  4  5  1  0
  5  6  1  0
  6  7  1  0
  7  8  1  0
  8  9  1  0
  9 10  1  0
 10 11  1  0
 11 12  1  0
 12 13  1  0
 13  1  1  0
  1 14  1  0
 14 15  1  0
  4 16  1  0
 16 17  1  0
  7 18  1  0
 18 19  1  0
 10 20  1  0
 20 21  1  0
 15 22  1  0
 15 23  2  0
 17 24  2  0
 17 25  1  0
 19 26  1  0
 19 27  2  0
 21 28  2  0
 21 29  1  0
M  END
>  <Name>  (384) 
TRITA

>  <logK_La_z=3.0_T=25_I=1.0>  (384) 
17.02

$$$$

     RDKit          2D

 15 16  0  0  1  0  0  0  0  0999 V2000
   11.0377   -9.3136    0.0000 C   0  0  0  0  0  0  0  0  0  0  0  0
   11.7027  -10.4654    0.0000 C   0  0  0  0  0  0  0  0  0  0  0  0
    9.7077   -9.3136    0.0000 C   0  0  0  0  0  0  0  0  0  0  0  0
   11.0377  -11.6172    0.0000 C   0  0  0  0  0  0  0  0  0  0  0  0
    9.0427  -10.4654    0.0000 C   0  0  0  0  0  0  0  0  0  0  0  0
    9.7077  -11.6172    0.0000 C   0  0  0  0  0  0  0  0  0  0  0  0
   13.0036  -10.1888    0.0000 C   0  0  0  0  0  0  0  0  0  0  0  0
   13.1426   -8.8661    0.0000 C   0  0  0  0  0  0  0  0  0  0  0  0
   11.9276   -8.3252    0.0000 N   0  0  0  0  0  0  0  0  0  0  0  0
   13.9920  -11.0788    0.0000 C   0  0  0  0  0  0  0  0  0  0  0  0
   15.2569  -10.6678    0.0000 C   0  0  0  0  0  0  0  0  0  0  0  0
   16.2453  -11.5577    0.0000 C   0  0  0  0  0  0  0  0  0  0  0  0
   15.5334   -9.3669    0.0000 N   0  0  0  0  0  0  0  0  0  0  0  0
   17.5102  -11.1468    0.0000 O   0  0  0  0  0  0  0  0  0  0  0  0
   15.9688  -12.8587    0.0000 O   0  0  0  0  0  0  0  0  0  0  0  0
  2  1  1  0
  3  1  2  0
  4  2  2  0
  5  3  1  0
  6  4  1  0
  6  5  2  0
  2  7  1  0
  7  8  2  0
  8  9  1  0
  9  1  1  0
  7 10  1  0
 10 11  1  0
 11 12  1  0
 11 13  1  6
 12 14  1  0
 12 15  2  0
M  END
>  <Name>  (385) 
Tryptophan

>  <logK_La_z=3.0_T=25_I=1.0>  (385) 
4.45

$$$$
