
     RDKit          2D

  9  8  0  0  0  0  0  0  0  0999 V2000
   -2.5981    0.0000    0.0000 O   0  0  0  0  0  0  0  0  0  0  0  0
   -1.2990    0.7500    0.0000 C   0  0  0  0  0  0  0  0  0  0  0  0
    0.0000    0.0000    0.0000 C   0  0  0  0  0  0  0  0  0  0  0  0
    1.2990    0.7500    0.0000 C   0  0  0  0  0  0  0  0  0  0  0  0
    2.5981   -0.0000    0.0000 C   0  0  0  0  0  0  0  0  0  0  0  0
    2.5981   -1.5000    0.0000 O   0  0  0  0  0  0  0  0  0  0  0  0
    3.8971    0.7500    0.0000 O   0  0  0  0  0  0  0  0  0  0  0  0
    1.2990    2.2500    0.0000 N   0  0  0  0  0  0  0  0  0  0  0  0
   -1.2990    2.2500    0.0000 O   0  0  0  0  0  0  0  0  0  0  0  0
  1  2  1  0
  2  3  1  0
  3  4  1  0
  4  5  1  0
  5  6  2  0
  5  7  1  0
  4  8  1  6
  2  9  2  0
M  END
>  <Name>  (1) 
L-Aminobutanedioic_acid_(Aspartic_acid)

>  <logK_Am_z=3.0_T=25_I=0.1>  (1) 
4.81

>  <logK_Am_z=3.0_T=25_I=0.7>  (1) 
4.53

$$$$

     RDKit          2D

 10  9  0  0  0  0  0  0  0  0999 V2000
    1.2990    0.7500    0.0000 C   0  0  0  0  0  0  0  0  0  0  0  0
    0.0000    0.0000    0.0000 C   0  0  0  0  0  0  0  0  0  0  0  0
   -1.2990    0.7500    0.0000 N   0  0  0  0  0  0  0  0  0  0  0  0
   -1.2990    2.2500    0.0000 N   0  0  0  0  0  0  0  0  0  0  0  0
   -2.5981    0.0000    0.0000 C   0  0  0  0  0  0  0  0  0  0  0  0
   -3.8971    0.7500    0.0000 C   0  0  0  0  0  0  0  0  0  0  0  0
   -5.1962    0.0000    0.0000 O   0  0  0  0  0  0  0  0  0  0  0  0
   -3.8971    2.2500    0.0000 O   0  0  0  0  0  0  0  0  0  0  0  0
    2.5981   -0.0000    0.0000 O   0  0  0  0  0  0  0  0  0  0  0  0
    1.2990    2.2500    0.0000 O   0  0  0  0  0  0  0  0  0  0  0  0
  1  2  1  0
  2  3  1  0
  3  4  1  0
  3  5  1  0
  5  6  1  0
  6  7  1  0
  6  8  2  0
  1  9  1  0
  1 10  2  0
M  END
>  <Name>  (2) 
Hydrazine-N,N-diacetic_acid_(N-Aminoiminodiacetic_acid)

>  <logK_Am_z=3.0_T=25_I=0.1>  (2) 
10.74

$$$$

     RDKit          2D

 13 12  0  0  0  0  0  0  0  0999 V2000
    2.5981   -0.0000    0.0000 O   0  0  0  0  0  0  0  0  0  0  0  0
    1.2990    0.7500    0.0000 C   0  0  0  0  0  0  0  0  0  0  0  0
    0.0000    0.0000    0.0000 C   0  0  0  0  0  0  0  0  0  0  0  0
   -1.2990    0.7500    0.0000 N   0  0  0  0  0  0  0  0  0  0  0  0
   -2.5981    0.0000    0.0000 C   0  0  0  0  0  0  0  0  0  0  0  0
   -2.5981   -1.5000    0.0000 C   0  0  0  0  0  0  0  0  0  0  0  0
   -3.8971   -2.2500    0.0000 O   0  0  0  0  0  0  0  0  0  0  0  0
   -1.2990   -2.2500    0.0000 O   0  0  0  0  0  0  0  0  0  0  0  0
   -1.2990    2.2500    0.0000 C   0  0  0  0  0  0  0  0  0  0  0  0
   -2.5981    3.0000    0.0000 C   0  0  0  0  0  0  0  0  0  0  0  0
   -2.5981    4.5000    0.0000 O   0  0  0  0  0  0  0  0  0  0  0  0
   -3.8971    2.2500    0.0000 O   0  0  0  0  0  0  0  0  0  0  0  0
    1.2990    2.2500    0.0000 O   0  0  0  0  0  0  0  0  0  0  0  0
  1  2  1  0
  2  3  1  0
  3  4  1  0
  4  5  1  0
  5  6  1  0
  6  7  1  0
  6  8  2  0
  4  9  1  0
  9 10  1  0
 10 11  1  0
 10 12  2  0
  2 13  2  0
M  END
>  <Name>  (3) 
Nitrilotriacetic_acid_(NTA)

>  <logK_Am_z=3.0_T=25_I=0.1>  (3) 
11.6

>  <logK_Am_z=3.0_T=25_I=0.5>  (3) 
10.8

$$$$

     RDKit          2D

 14 13  0  0  0  0  0  0  0  0999 V2000
   -1.2990    0.7500    0.0000 C   0  0  0  0  0  0  0  0  0  0  0  0
   -2.5981    0.0000    0.0000 O   0  0  0  0  0  0  0  0  0  0  0  0
   -1.2990    2.2500    0.0000 O   0  0  0  0  0  0  0  0  0  0  0  0
    0.0000    0.0000    0.0000 C   0  0  0  0  0  0  0  0  0  0  0  0
    1.2990    0.7500    0.0000 C   0  0  0  0  0  0  0  0  0  0  0  0
    2.5981   -0.0000    0.0000 N   0  0  0  0  0  0  0  0  0  0  0  0
    3.8971    0.7500    0.0000 C   0  0  0  0  0  0  0  0  0  0  0  0
    5.1962   -0.0000    0.0000 C   0  0  0  0  0  0  0  0  0  0  0  0
    6.4952    0.7500    0.0000 O   0  0  0  0  0  0  0  0  0  0  0  0
    5.1962   -1.5000    0.0000 O   0  0  0  0  0  0  0  0  0  0  0  0
    2.5981   -1.5000    0.0000 C   0  0  0  0  0  0  0  0  0  0  0  0
    1.2990   -2.2500    0.0000 C   0  0  0  0  0  0  0  0  0  0  0  0
    1.2990   -3.7500    0.0000 O   0  0  0  0  0  0  0  0  0  0  0  0
    0.0000   -1.5000    0.0000 O   0  0  0  0  0  0  0  0  0  0  0  0
  1  2  1  0
  1  3  2  0
  1  4  1  0
  4  5  1  0
  5  6  1  0
  6  7  1  0
  7  8  1  0
  8  9  1  0
  8 10  2  0
  6 11  1  0
 11 12  1  0
 12 13  1  0
 12 14  2  0
M  END
>  <Name>  (4) 
N-(2-Carboxyethyl)iminodiacetic_acid

>  <logK_Am_z=3.0_T=25_I=0.1>  (4) 
10.54

$$$$

     RDKit          2D

 19 18  0  0  0  0  0  0  0  0999 V2000
   -1.2990    0.7500    0.0000 O   0  0  0  0  0  0  0  0  0  0  0  0
    0.0000    0.0000    0.0000 C   0  0  0  0  0  0  0  0  0  0  0  0
    1.2990    0.7500    0.0000 C   0  0  0  0  0  0  0  0  0  0  0  0
    2.5981   -0.0000    0.0000 N   0  0  0  0  0  0  0  0  0  0  0  0
    3.8971    0.7500    0.0000 C   0  0  0  0  0  0  0  0  0  0  0  0
    5.1962   -0.0000    0.0000 C   0  0  0  0  0  0  0  0  0  0  0  0
    6.4952    0.7500    0.0000 N   0  0  0  0  0  0  0  0  0  0  0  0
    7.7942   -0.0000    0.0000 C   0  0  0  0  0  0  0  0  0  0  0  0
    9.0933    0.7500    0.0000 C   0  0  0  0  0  0  0  0  0  0  0  0
   10.3923   -0.0000    0.0000 O   0  0  0  0  0  0  0  0  0  0  0  0
    9.0933    2.2500    0.0000 O   0  0  0  0  0  0  0  0  0  0  0  0
    6.4952    2.2500    0.0000 C   0  0  0  0  0  0  0  0  0  0  0  0
    5.1962    3.0000    0.0000 C   0  0  0  0  0  0  0  0  0  0  0  0
    5.1962    4.5000    0.0000 O   0  0  0  0  0  0  0  0  0  0  0  0
    3.8971    2.2500    0.0000 O   0  0  0  0  0  0  0  0  0  0  0  0
    2.5981   -1.5000    0.0000 C   0  0  0  0  0  0  0  0  0  0  0  0
    3.8971   -2.2500    0.0000 C   0  0  0  0  0  0  0  0  0  0  0  0
    3.8971   -3.7500    0.0000 O   0  0  0  0  0  0  0  0  0  0  0  0
    5.1962   -1.5000    0.0000 O   0  0  0  0  0  0  0  0  0  0  0  0
  1  2  1  0
  2  3  1  0
  3  4  1  0
  4  5  1  0
  5  6  1  0
  6  7  1  0
  7  8  1  0
  8  9  1  0
  9 10  1  0
  9 11  2  0
  7 12  1  0
 12 13  1  0
 13 14  1  0
 13 15  2  0
  4 16  1  0
 16 17  1  0
 17 18  1  0
 17 19  2  0
M  END
>  <Name>  (5) 
N-(2-Hydroxyethyl)ethylenedinitrilotriacetic_acid_(HEDTA)

>  <logK_Am_z=3.0_T=25_I=0.1>  (5) 
15.7

>  <logK_Am_z=3.0_T=25_I=1.0>  (5) 
14.8

$$$$

     RDKit          2D

 20 19  0  0  0  0  0  0  0  0999 V2000
   -1.2990    0.7500    0.0000 N   0  0  0  0  0  0  0  0  0  0  0  0
    0.0000    0.0000    0.0000 C   0  0  0  0  0  0  0  0  0  0  0  0
    1.2990    0.7500    0.0000 C   0  0  0  0  0  0  0  0  0  0  0  0
    1.2990    2.2500    0.0000 O   0  0  0  0  0  0  0  0  0  0  0  0
    2.5981   -0.0000    0.0000 O   0  0  0  0  0  0  0  0  0  0  0  0
   -1.2990    2.2500    0.0000 C   0  0  0  0  0  0  0  0  0  0  0  0
   -2.5981    3.0000    0.0000 C   0  0  0  0  0  0  0  0  0  0  0  0
   -3.8971    2.2500    0.0000 O   0  0  0  0  0  0  0  0  0  0  0  0
   -2.5981    4.5000    0.0000 O   0  0  0  0  0  0  0  0  0  0  0  0
   -2.5981    0.0000    0.0000 C   0  0  0  0  0  0  0  0  0  0  0  0
   -3.8971    0.7500    0.0000 C   0  0  0  0  0  0  0  0  0  0  0  0
   -5.1962    0.0000    0.0000 N   0  0  0  0  0  0  0  0  0  0  0  0
   -6.4952    0.7500    0.0000 C   0  0  0  0  0  0  0  0  0  0  0  0
   -7.7942    0.0000    0.0000 C   0  0  0  0  0  0  0  0  0  0  0  0
   -7.7942   -1.5000    0.0000 O   0  0  0  0  0  0  0  0  0  0  0  0
   -9.0933    0.7500    0.0000 O   0  0  0  0  0  0  0  0  0  0  0  0
   -5.1962   -1.5000    0.0000 C   0  0  0  0  0  0  0  0  0  0  0  0
   -3.8971   -2.2500    0.0000 C   0  0  0  0  0  0  0  0  0  0  0  0
   -2.5981   -1.5000    0.0000 O   0  0  0  0  0  0  0  0  0  0  0  0
   -3.8971   -3.7500    0.0000 O   0  0  0  0  0  0  0  0  0  0  0  0
  1  2  1  0
  2  3  1  0
  3  4  2  0
  3  5  1  0
  1  6  1  0
  6  7  1  0
  7  8  2  0
  7  9  1  0
  1 10  1  0
 10 11  1  0
 11 12  1  0
 12 13  1  0
 13 14  1  0
 14 15  2  0
 14 16  1  0
 12 17  1  0
 17 18  1  0
 18 19  2  0
 18 20  1  0
M  END
>  <Name>  (6) 
Ethylenedinitrilotetraacetic_acid_(EDTA)

>  <logK_Am_z=3.0_T=25_I=0.1>  (6) 
17.5

>  <logK_Am_z=3.0_T=25_I=0.5>  (6) 
16.4

$$$$

     RDKit          2D

 21 20  0  0  0  0  0  0  0  0999 V2000
    0.0000    0.0000    0.0000 C   0  0  0  0  0  0  0  0  0  0  0  0
    1.2990    0.7500    0.0000 C   0  0  0  0  0  0  0  0  0  0  0  0
    2.5981   -0.0000    0.0000 C   0  0  0  0  0  0  0  0  0  0  0  0
    3.8971    0.7500    0.0000 N   0  0  0  0  0  0  0  0  0  0  0  0
    5.1962   -0.0000    0.0000 C   0  0  0  0  0  0  0  0  0  0  0  0
    5.1962   -1.5000    0.0000 C   0  0  0  0  0  0  0  0  0  0  0  0
    6.4952   -2.2500    0.0000 O   0  0  0  0  0  0  0  0  0  0  0  0
    3.8971   -2.2500    0.0000 O   0  0  0  0  0  0  0  0  0  0  0  0
    3.8971    2.2500    0.0000 C   0  0  0  0  0  0  0  0  0  0  0  0
    5.1962    3.0000    0.0000 C   0  0  0  0  0  0  0  0  0  0  0  0
    5.1962    4.5000    0.0000 O   0  0  0  0  0  0  0  0  0  0  0  0
    6.4952    2.2500    0.0000 O   0  0  0  0  0  0  0  0  0  0  0  0
    1.2990    2.2500    0.0000 N   0  0  0  0  0  0  0  0  0  0  0  0
    2.5981    3.0000    0.0000 C   0  0  0  0  0  0  0  0  0  0  0  0
    2.5981    4.5000    0.0000 C   0  0  0  0  0  0  0  0  0  0  0  0
    3.8971    5.2500    0.0000 O   0  0  0  0  0  0  0  0  0  0  0  0
    1.2990    5.2500    0.0000 O   0  0  0  0  0  0  0  0  0  0  0  0
   -0.0000    3.0000    0.0000 C   0  0  0  0  0  0  0  0  0  0  0  0
   -1.2990    2.2500    0.0000 C   0  0  0  0  0  0  0  0  0  0  0  0
   -2.5981    3.0000    0.0000 O   0  0  0  0  0  0  0  0  0  0  0  0
   -1.2990    0.7500    0.0000 O   0  0  0  0  0  0  0  0  0  0  0  0
  1  2  1  0
  2  3  1  0
  3  4  1  0
  4  5  1  0
  5  6  1  0
  6  7  1  0
  6  8  2  0
  4  9  1  0
  9 10  1  0
 10 11  1  0
 10 12  2  0
  2 13  1  0
 13 14  1  0
 14 15  1  0
 15 16  1  0
 15 17  2  0
 13 18  1  0
 18 19  1  0
 19 20  1  0
 19 21  2  0
M  END
>  <Name>  (7) 
DL-(Methylethylene)dinitrilotetraacetic_acid_(PDTA)

>  <logK_Am_z=3.0_T=25_I=0.1>  (7) 
17.5

$$$$

     RDKit          2D

 24 24  0  0  0  0  0  0  0  0999 V2000
    3.7500   -3.8971    0.0000 O   0  0  0  0  0  0  0  0  0  0  0  0
    3.0000   -2.5981    0.0000 C   0  0  0  0  0  0  0  0  0  0  0  0
    1.5000   -2.5981    0.0000 O   0  0  0  0  0  0  0  0  0  0  0  0
    3.7500   -1.2990    0.0000 C   0  0  0  0  0  0  0  0  0  0  0  0
    3.0000    0.0000    0.0000 N   0  0  0  0  0  0  0  0  0  0  0  0
    3.7500    1.2990    0.0000 C   0  0  0  0  0  0  0  0  0  0  0  0
    5.2500    1.2990    0.0000 C   0  0  0  0  0  0  0  0  0  0  0  0
    6.0000    2.5981    0.0000 O   0  0  0  0  0  0  0  0  0  0  0  0
    6.0000    0.0000    0.0000 O   0  0  0  0  0  0  0  0  0  0  0  0
    1.5000    0.0000    0.0000 C   0  0  0  0  0  0  0  0  0  0  0  0
    0.7500   -1.2990    0.0000 C   0  0  0  0  0  0  0  0  0  0  0  0
   -0.7500   -1.2990    0.0000 C   0  0  0  0  0  0  0  0  0  0  0  0
   -1.5000    0.0000    0.0000 C   0  0  0  0  0  0  0  0  0  0  0  0
   -0.7500    1.2990    0.0000 C   0  0  0  0  0  0  0  0  0  0  0  0
    0.7500    1.2990    0.0000 C   0  0  0  0  0  0  0  0  0  0  0  0
    1.5000    2.5981    0.0000 N   0  0  0  0  0  0  0  0  0  0  0  0
    0.7500    3.8971    0.0000 C   0  0  0  0  0  0  0  0  0  0  0  0
   -0.7500    3.8971    0.0000 C   0  0  0  0  0  0  0  0  0  0  0  0
   -1.5000    5.1962    0.0000 O   0  0  0  0  0  0  0  0  0  0  0  0
   -1.5000    2.5981    0.0000 O   0  0  0  0  0  0  0  0  0  0  0  0
    3.0000    2.5981    0.0000 C   0  0  0  0  0  0  0  0  0  0  0  0
    3.7500    3.8971    0.0000 C   0  0  0  0  0  0  0  0  0  0  0  0
    5.2500    3.8971    0.0000 O   0  0  0  0  0  0  0  0  0  0  0  0
    3.0000    5.1962    0.0000 O   0  0  0  0  0  0  0  0  0  0  0  0
  1  2  1  0
  2  3  2  0
  2  4  1  0
  4  5  1  0
  5  6  1  0
  6  7  1  0
  7  8  1  0
  7  9  2  0
  5 10  1  0
 10 11  1  0
 11 12  1  0
 12 13  1  0
 13 14  1  0
 14 15  1  0
 15 16  1  0
 16 17  1  0
 17 18  1  0
 18 19  1  0
 18 20  2  0
 16 21  1  0
 21 22  1  0
 22 23  1  0
 22 24  2  0
 15 10  1  0
M  END
>  <Name>  (8) 
trans-1,2-Cyclohexylenedinitrilotetraacetic_acid_(CDTA)

>  <logK_Am_z=3.0_T=25_I=0.1>  (8) 
19.4

>  <logK_Am_z=3.0_T=25_I=0.5>  (8) 
18.2

$$$$

     RDKit          2D

 24 23  0  0  0  0  0  0  0  0999 V2000
   -2.5981    0.0000    0.0000 O   0  0  0  0  0  0  0  0  0  0  0  0
   -1.2990    0.7500    0.0000 C   0  0  0  0  0  0  0  0  0  0  0  0
    0.0000    0.0000    0.0000 C   0  0  0  0  0  0  0  0  0  0  0  0
    1.2990    0.7500    0.0000 C   0  0  0  0  0  0  0  0  0  0  0  0
    2.5981   -0.0000    0.0000 N   0  0  0  0  0  0  0  0  0  0  0  0
    3.8971    0.7500    0.0000 C   0  0  0  0  0  0  0  0  0  0  0  0
    5.1962   -0.0000    0.0000 C   0  0  0  0  0  0  0  0  0  0  0  0
    6.4952    0.7500    0.0000 C   0  0  0  0  0  0  0  0  0  0  0  0
    6.4952    2.2500    0.0000 O   0  0  0  0  0  0  0  0  0  0  0  0
    7.7942   -0.0000    0.0000 O   0  0  0  0  0  0  0  0  0  0  0  0
    2.5981   -1.5000    0.0000 C   0  0  0  0  0  0  0  0  0  0  0  0
    3.8971   -2.2500    0.0000 C   0  0  0  0  0  0  0  0  0  0  0  0
    3.8971   -3.7500    0.0000 N   0  0  0  0  0  0  0  0  0  0  0  0
    5.1962   -4.5000    0.0000 C   0  0  0  0  0  0  0  0  0  0  0  0
    5.1962   -6.0000    0.0000 C   0  0  0  0  0  0  0  0  0  0  0  0
    6.4952   -6.7500    0.0000 C   0  0  0  0  0  0  0  0  0  0  0  0
    7.7942   -6.0000    0.0000 O   0  0  0  0  0  0  0  0  0  0  0  0
    6.4952   -8.2500    0.0000 O   0  0  0  0  0  0  0  0  0  0  0  0
    2.5981   -4.5000    0.0000 C   0  0  0  0  0  0  0  0  0  0  0  0
    2.5981   -6.0000    0.0000 C   0  0  0  0  0  0  0  0  0  0  0  0
    1.2990   -6.7500    0.0000 C   0  0  0  0  0  0  0  0  0  0  0  0
   -0.0000   -6.0000    0.0000 O   0  0  0  0  0  0  0  0  0  0  0  0
    1.2990   -8.2500    0.0000 O   0  0  0  0  0  0  0  0  0  0  0  0
   -1.2990    2.2500    0.0000 O   0  0  0  0  0  0  0  0  0  0  0  0
  1  2  1  0
  2  3  1  0
  3  4  1  0
  4  5  1  0
  5  6  1  0
  6  7  1  0
  7  8  1  0
  8  9  2  0
  8 10  1  0
  5 11  1  0
 11 12  1  0
 12 13  1  0
 13 14  1  0
 14 15  1  0
 15 16  1  0
 16 17  2  0
 16 18  1  0
 13 19  1  0
 19 20  1  0
 20 21  1  0
 21 22  2  0
 21 23  1  0
  2 24  2  0
M  END
>  <Name>  (9) 
Ethylenedinitrilotetra(3-propanoic_acid)_(EDTP)

>  <logK_Am_z=3.0_T=25_I=1.0>  (9) 
18.8

$$$$

     RDKit          2D

 21 20  0  0  0  0  0  0  0  0999 V2000
    1.2990    0.7500    0.0000 C   0  0  0  0  0  0  0  0  0  0  0  0
    2.5981   -0.0000    0.0000 O   0  0  0  0  0  0  0  0  0  0  0  0
    1.2990    2.2500    0.0000 O   0  0  0  0  0  0  0  0  0  0  0  0
    0.0000    0.0000    0.0000 C   0  0  0  0  0  0  0  0  0  0  0  0
   -1.2990    0.7500    0.0000 N   0  0  0  0  0  0  0  0  0  0  0  0
   -2.5981    0.0000    0.0000 C   0  0  0  0  0  0  0  0  0  0  0  0
   -3.8971    0.7500    0.0000 C   0  0  0  0  0  0  0  0  0  0  0  0
   -5.1962    0.0000    0.0000 C   0  0  0  0  0  0  0  0  0  0  0  0
   -6.4952    0.7500    0.0000 N   0  0  0  0  0  0  0  0  0  0  0  0
   -7.7942    0.0000    0.0000 C   0  0  0  0  0  0  0  0  0  0  0  0
   -7.7942   -1.5000    0.0000 C   0  0  0  0  0  0  0  0  0  0  0  0
   -9.0933   -2.2500    0.0000 O   0  0  0  0  0  0  0  0  0  0  0  0
   -6.4952   -2.2500    0.0000 O   0  0  0  0  0  0  0  0  0  0  0  0
   -6.4952    2.2500    0.0000 C   0  0  0  0  0  0  0  0  0  0  0  0
   -7.7942    3.0000    0.0000 C   0  0  0  0  0  0  0  0  0  0  0  0
   -7.7942    4.5000    0.0000 O   0  0  0  0  0  0  0  0  0  0  0  0
   -9.0933    2.2500    0.0000 O   0  0  0  0  0  0  0  0  0  0  0  0
   -1.2990    2.2500    0.0000 C   0  0  0  0  0  0  0  0  0  0  0  0
   -2.5981    3.0000    0.0000 C   0  0  0  0  0  0  0  0  0  0  0  0
   -2.5981    4.5000    0.0000 O   0  0  0  0  0  0  0  0  0  0  0  0
   -3.8971    2.2500    0.0000 O   0  0  0  0  0  0  0  0  0  0  0  0
  1  2  1  0
  1  3  2  0
  1  4  1  0
  4  5  1  0
  5  6  1  0
  6  7  1  0
  7  8  1  0
  8  9  1  0
  9 10  1  0
 10 11  1  0
 11 12  1  0
 11 13  2  0
  9 14  1  0
 14 15  1  0
 15 16  1  0
 15 17  2  0
  5 18  1  0
 18 19  1  0
 19 20  1  0
 19 21  2  0
M  END
>  <Name>  (10) 
Trimethylenedinitrilotetraacetic_acid_(TMDTA)

>  <logK_Am_z=3.0_T=25_I=0.1>  (10) 
13.45

>  <logK_Am_z=3.0_T=25_I=0.5>  (10) 
12.9

$$$$

     RDKit          2D

 26 25  0  0  0  0  0  0  0  0999 V2000
    2.5981   -0.0000    0.0000 O   0  0  0  0  0  0  0  0  0  0  0  0
    1.2990    0.7500    0.0000 C   0  0  0  0  0  0  0  0  0  0  0  0
    0.0000    0.0000    0.0000 C   0  0  0  0  0  0  0  0  0  0  0  0
   -1.2990    0.7500    0.0000 N   0  0  0  0  0  0  0  0  0  0  0  0
   -1.2990    2.2500    0.0000 C   0  0  0  0  0  0  0  0  0  0  0  0
   -2.5981    3.0000    0.0000 C   0  0  0  0  0  0  0  0  0  0  0  0
   -3.8971    2.2500    0.0000 O   0  0  0  0  0  0  0  0  0  0  0  0
   -2.5981    4.5000    0.0000 O   0  0  0  0  0  0  0  0  0  0  0  0
   -2.5981    0.0000    0.0000 C   0  0  0  0  0  0  0  0  0  0  0  0
   -3.8971    0.7500    0.0000 C   0  0  0  0  0  0  0  0  0  0  0  0
   -5.1962    0.0000    0.0000 O   0  0  0  0  0  0  0  0  0  0  0  0
   -6.4952    0.7500    0.0000 C   0  0  0  0  0  0  0  0  0  0  0  0
   -7.7942    0.0000    0.0000 C   0  0  0  0  0  0  0  0  0  0  0  0
   -9.0933    0.7500    0.0000 O   0  0  0  0  0  0  0  0  0  0  0  0
  -10.3923    0.0000    0.0000 C   0  0  0  0  0  0  0  0  0  0  0  0
  -11.6913    0.7500    0.0000 C   0  0  0  0  0  0  0  0  0  0  0  0
  -12.9904    0.0000    0.0000 N   0  0  0  0  0  0  0  0  0  0  0  0
  -14.2894    0.7500    0.0000 C   0  0  0  0  0  0  0  0  0  0  0  0
  -15.5885    0.0000    0.0000 C   0  0  0  0  0  0  0  0  0  0  0  0
  -15.5885   -1.5000    0.0000 O   0  0  0  0  0  0  0  0  0  0  0  0
  -16.8875    0.7500    0.0000 O   0  0  0  0  0  0  0  0  0  0  0  0
  -12.9904   -1.5000    0.0000 C   0  0  0  0  0  0  0  0  0  0  0  0
  -11.6913   -2.2500    0.0000 C   0  0  0  0  0  0  0  0  0  0  0  0
  -10.3923   -1.5000    0.0000 O   0  0  0  0  0  0  0  0  0  0  0  0
  -11.6913   -3.7500    0.0000 O   0  0  0  0  0  0  0  0  0  0  0  0
    1.2990    2.2500    0.0000 O   0  0  0  0  0  0  0  0  0  0  0  0
  1  2  1  0
  2  3  1  0
  3  4  1  0
  4  5  1  0
  5  6  1  0
  6  7  2  0
  6  8  1  0
  4  9  1  0
  9 10  1  0
 10 11  1  0
 11 12  1  0
 12 13  1  0
 13 14  1  0
 14 15  1  0
 15 16  1  0
 16 17  1  0
 17 18  1  0
 18 19  1  0
 19 20  2  0
 19 21  1  0
 17 22  1  0
 22 23  1  0
 23 24  2  0
 23 25  1  0
  2 26  2  0
M  END
>  <Name>  (11) 
Ethylenebis(oxyethylenenitrilo)tetraacetic_acid_(EGTA)

>  <logK_Am_z=3.0_T=25_I=0.1>  (11) 
18.2

$$$$

     RDKit          2D

 27 26  0  0  0  0  0  0  0  0999 V2000
    2.5981   -0.0000    0.0000 O   0  0  0  0  0  0  0  0  0  0  0  0
    1.2990    0.7500    0.0000 C   0  0  0  0  0  0  0  0  0  0  0  0
    0.0000    0.0000    0.0000 C   0  0  0  0  0  0  0  0  0  0  0  0
   -1.2990    0.7500    0.0000 N   0  0  0  0  0  0  0  0  0  0  0  0
   -2.5981    0.0000    0.0000 C   0  0  0  0  0  0  0  0  0  0  0  0
   -3.8971    0.7500    0.0000 C   0  0  0  0  0  0  0  0  0  0  0  0
   -5.1962    0.0000    0.0000 N   0  0  0  0  0  0  0  0  0  0  0  0
   -6.4952    0.7500    0.0000 C   0  0  0  0  0  0  0  0  0  0  0  0
   -7.7942    0.0000    0.0000 C   0  0  0  0  0  0  0  0  0  0  0  0
   -7.7942   -1.5000    0.0000 O   0  0  0  0  0  0  0  0  0  0  0  0
   -9.0933    0.7500    0.0000 O   0  0  0  0  0  0  0  0  0  0  0  0
   -5.1962   -1.5000    0.0000 C   0  0  0  0  0  0  0  0  0  0  0  0
   -3.8971   -2.2500    0.0000 C   0  0  0  0  0  0  0  0  0  0  0  0
   -2.5981   -1.5000    0.0000 O   0  0  0  0  0  0  0  0  0  0  0  0
   -3.8971   -3.7500    0.0000 O   0  0  0  0  0  0  0  0  0  0  0  0
   -1.2990    2.2500    0.0000 C   0  0  0  0  0  0  0  0  0  0  0  0
   -2.5981    3.0000    0.0000 C   0  0  0  0  0  0  0  0  0  0  0  0
   -2.5981    4.5000    0.0000 N   0  0  0  0  0  0  0  0  0  0  0  0
   -3.8971    5.2500    0.0000 C   0  0  0  0  0  0  0  0  0  0  0  0
   -3.8971    6.7500    0.0000 C   0  0  0  0  0  0  0  0  0  0  0  0
   -2.5981    7.5000    0.0000 O   0  0  0  0  0  0  0  0  0  0  0  0
   -5.1962    7.5000    0.0000 O   0  0  0  0  0  0  0  0  0  0  0  0
   -1.2990    5.2500    0.0000 C   0  0  0  0  0  0  0  0  0  0  0  0
    0.0000    4.5000    0.0000 C   0  0  0  0  0  0  0  0  0  0  0  0
   -0.0000    3.0000    0.0000 O   0  0  0  0  0  0  0  0  0  0  0  0
    1.2990    5.2500    0.0000 O   0  0  0  0  0  0  0  0  0  0  0  0
    1.2990    2.2500    0.0000 O   0  0  0  0  0  0  0  0  0  0  0  0
  1  2  1  0
  2  3  1  0
  3  4  1  0
  4  5  1  0
  5  6  1  0
  6  7  1  0
  7  8  1  0
  8  9  1  0
  9 10  2  0
  9 11  1  0
  7 12  1  0
 12 13  1  0
 13 14  2  0
 13 15  1  0
  4 16  1  0
 16 17  1  0
 17 18  1  0
 18 19  1  0
 19 20  1  0
 20 21  2  0
 20 22  1  0
 18 23  1  0
 23 24  1  0
 24 25  2  0
 24 26  1  0
  2 27  2  0
M  END
>  <Name>  (12) 
Diethylenetrinitrilopentaacetic_acid_(DTPA)

>  <logK_Am_z=3.0_T=25_I=0.1>  (12) 
22.9

>  <logK_Am_z=3.0_T=20_I=0.1>  (12) 
23.2

>  <logK_Am_z=3.0_T=25_I=0.5>  (12) 
21.2

$$$$

     RDKit          2D

 34 33  0  0  0  0  0  0  0  0999 V2000
    2.5981   -0.0000    0.0000 O   0  0  0  0  0  0  0  0  0  0  0  0
    1.2990    0.7500    0.0000 C   0  0  0  0  0  0  0  0  0  0  0  0
    1.2990    2.2500    0.0000 O   0  0  0  0  0  0  0  0  0  0  0  0
    0.0000    0.0000    0.0000 C   0  0  0  0  0  0  0  0  0  0  0  0
   -1.2990    0.7500    0.0000 N   0  0  0  0  0  0  0  0  0  0  0  0
   -2.5981    0.0000    0.0000 C   0  0  0  0  0  0  0  0  0  0  0  0
   -3.8971    0.7500    0.0000 C   0  0  0  0  0  0  0  0  0  0  0  0
   -5.1962    0.0000    0.0000 N   0  0  0  0  0  0  0  0  0  0  0  0
   -6.4952    0.7500    0.0000 C   0  0  0  0  0  0  0  0  0  0  0  0
   -7.7942    0.0000    0.0000 C   0  0  0  0  0  0  0  0  0  0  0  0
   -9.0933    0.7500    0.0000 N   0  0  0  0  0  0  0  0  0  0  0  0
  -10.3923    0.0000    0.0000 C   0  0  0  0  0  0  0  0  0  0  0  0
  -11.6913    0.7500    0.0000 C   0  0  0  0  0  0  0  0  0  0  0  0
  -12.9904    0.0000    0.0000 O   0  0  0  0  0  0  0  0  0  0  0  0
  -11.6913    2.2500    0.0000 O   0  0  0  0  0  0  0  0  0  0  0  0
   -9.0933    2.2500    0.0000 C   0  0  0  0  0  0  0  0  0  0  0  0
   -7.7942    3.0000    0.0000 C   0  0  0  0  0  0  0  0  0  0  0  0
   -7.7942    4.5000    0.0000 O   0  0  0  0  0  0  0  0  0  0  0  0
   -6.4952    2.2500    0.0000 O   0  0  0  0  0  0  0  0  0  0  0  0
   -5.1962   -1.5000    0.0000 C   0  0  0  0  0  0  0  0  0  0  0  0
   -6.4952   -2.2500    0.0000 C   0  0  0  0  0  0  0  0  0  0  0  0
   -6.4952   -3.7500    0.0000 O   0  0  0  0  0  0  0  0  0  0  0  0
   -7.7942   -1.5000    0.0000 O   0  0  0  0  0  0  0  0  0  0  0  0
   -1.2990    2.2500    0.0000 C   0  0  0  0  0  0  0  0  0  0  0  0
   -2.5981    3.0000    0.0000 C   0  0  0  0  0  0  0  0  0  0  0  0
   -2.5981    4.5000    0.0000 N   0  0  0  0  0  0  0  0  0  0  0  0
   -3.8971    5.2500    0.0000 C   0  0  0  0  0  0  0  0  0  0  0  0
   -3.8971    6.7500    0.0000 C   0  0  0  0  0  0  0  0  0  0  0  0
   -5.1962    7.5000    0.0000 O   0  0  0  0  0  0  0  0  0  0  0  0
   -2.5981    7.5000    0.0000 O   0  0  0  0  0  0  0  0  0  0  0  0
   -1.2990    5.2500    0.0000 C   0  0  0  0  0  0  0  0  0  0  0  0
    0.0000    4.5000    0.0000 C   0  0  0  0  0  0  0  0  0  0  0  0
    1.2990    5.2500    0.0000 O   0  0  0  0  0  0  0  0  0  0  0  0
   -0.0000    3.0000    0.0000 O   0  0  0  0  0  0  0  0  0  0  0  0
  1  2  1  0
  2  3  2  0
  2  4  1  0
  4  5  1  0
  5  6  1  0
  6  7  1  0
  7  8  1  0
  8  9  1  0
  9 10  1  0
 10 11  1  0
 11 12  1  0
 12 13  1  0
 13 14  1  0
 13 15  2  0
 11 16  1  0
 16 17  1  0
 17 18  1  0
 17 19  2  0
  8 20  1  0
 20 21  1  0
 21 22  1  0
 21 23  2  0
  5 24  1  0
 24 25  1  0
 25 26  1  0
 26 27  1  0
 27 28  1  0
 28 29  1  0
 28 30  2  0
 26 31  1  0
 31 32  1  0
 32 33  1  0
 32 34  2  0
M  END
>  <Name>  (13) 
Triethylenetetranitrilohexaacetic_acid_(TTHA)

>  <logK_Am_z=3.0_T=25_I=0.1>  (13) 
26.6

$$$$

     RDKit          2D

 18 18  0  0  0  0  0  0  0  0999 V2000
    3.7500   -3.8971    0.0000 O   0  0  0  0  0  0  0  0  0  0  0  0
    3.0000   -2.5981    0.0000 C   0  0  0  0  0  0  0  0  0  0  0  0
    3.7500   -1.2990    0.0000 C   0  0  0  0  0  0  0  0  0  0  0  0
    3.0000    0.0000    0.0000 N   0  0  0  0  0  0  0  0  0  0  0  0
    3.7500    1.2990    0.0000 C   0  0  0  0  0  0  0  0  0  0  0  0
    5.2500    1.2990    0.0000 C   0  0  0  0  0  0  0  0  0  0  0  0
    6.0000    0.0000    0.0000 O   0  0  0  0  0  0  0  0  0  0  0  0
    6.0000    2.5981    0.0000 O   0  0  0  0  0  0  0  0  0  0  0  0
    1.5000    0.0000    0.0000 C   0  0  0  0  0  0  0  0  0  0  0  0
    0.7500   -1.2990    0.0000 C   0  0  0  0  0  0  0  0  0  0  0  0
   -0.7500   -1.2990    0.0000 C   0  0  0  0  0  0  0  0  0  0  0  0
   -1.5000    0.0000    0.0000 C   0  0  0  0  0  0  0  0  0  0  0  0
   -0.7500    1.2990    0.0000 C   0  0  0  0  0  0  0  0  0  0  0  0
    0.7500    1.2990    0.0000 C   0  0  0  0  0  0  0  0  0  0  0  0
    1.5000    2.5981    0.0000 C   0  0  0  0  0  0  0  0  0  0  0  0
    0.7500    3.8971    0.0000 O   0  0  0  0  0  0  0  0  0  0  0  0
    3.0000    2.5981    0.0000 O   0  0  0  0  0  0  0  0  0  0  0  0
    1.5000   -2.5981    0.0000 O   0  0  0  0  0  0  0  0  0  0  0  0
  1  2  1  0
  2  3  1  0
  3  4  1  0
  4  5  1  0
  5  6  1  0
  6  7  2  0
  6  8  1  0
  4  9  1  0
  9 10  2  0
 10 11  1  0
 11 12  2  0
 12 13  1  0
 13 14  2  0
 14 15  1  0
 15 16  2  0
 15 17  1  0
  2 18  2  0
 14  9  1  0
M  END
>  <Name>  (14) 
N-(2-Carboxyphenyl)iminodiacetic_acid

>  <logK_Am_z=3.0_T=25_I=0.1>  (14) 
8.92

$$$$

     RDKit          2D

  6  5  0  0  0  0  0  0  0  0999 V2000
   -1.2990    0.7500    0.0000 O   0  0  0  0  0  0  0  0  0  0  0  0
    0.0000    0.0000    0.0000 C   0  0  0  0  0  0  0  0  0  0  0  0
    1.2990    0.7500    0.0000 C   0  0  0  0  0  0  0  0  0  0  0  0
    2.5981   -0.0000    0.0000 Cl  0  0  0  0  0  0  0  0  0  0  0  0
    1.2990    2.2500    0.0000 Cl  0  0  0  0  0  0  0  0  0  0  0  0
   -0.0000   -1.5000    0.0000 O   0  0  0  0  0  0  0  0  0  0  0  0
  1  2  1  0
  2  3  1  0
  3  4  1  0
  3  5  1  0
  2  6  2  0
M  END
>  <Name>  (15) 
Dichloroacetic_acid

>  <logK_Am_z=3.0_T=25_I=2.0>  (15) 
0.79

$$$$

     RDKit          2D

  6  5  0  0  0  0  0  0  0  0999 V2000
    0.0000    0.0000    0.0000 C   0  0  0  0  0  0  0  0  0  0  0  0
    1.2990    0.7500    0.0000 C   0  0  0  0  0  0  0  0  0  0  0  0
    2.5981   -0.0000    0.0000 O   0  0  0  0  0  0  0  0  0  0  0  0
    1.2990    2.2500    0.0000 O   0  0  0  0  0  0  0  0  0  0  0  0
   -1.2990    0.7500    0.0000 O   0  0  0  0  0  0  0  0  0  0  0  0
   -0.0000   -1.5000    0.0000 O   0  0  0  0  0  0  0  0  0  0  0  0
  1  2  1  0
  2  3  1  0
  2  4  2  0
  1  5  1  0
  1  6  2  0
M  END
>  <Name>  (16) 
Ethanedioic_acid_(Oxalic_acid)

>  <logK_Am_z=3.0_T=25_I=0.1>  (16) 
5.25

>  <logK_Am_z=3.0_T=20_I=0.7>  (16) 
4.58

>  <logK_Am_z=3.0_T=25_I=1.0>  (16) 
4.62

>  <logK_Am_z=3.0_T=25_I=3.0>  (16) 
4.65

>  <logK_Am_z=3.0_T=25_I=5.0>  (16) 
4.83

>  <logK_Am_z=3.0_T=25_I=7.0>  (16) 
4.9

>  <logK_Am_z=3.0_T=25_I=9.0>  (16) 
4.54

$$$$

     RDKit          2D

 13 12  0  0  0  0  0  0  0  0999 V2000
    0.5490    2.0490    0.0000 O   0  0  0  0  0  0  0  0  0  0  0  0
    1.2990    0.7500    0.0000 C   0  0  0  0  0  0  0  0  0  0  0  0
    2.0490   -0.5490    0.0000 C   0  0  0  0  0  0  0  0  0  0  0  0
    3.5490   -0.5490    0.0000 O   0  0  0  0  0  0  0  0  0  0  0  0
    1.2990   -1.8481    0.0000 O   0  0  0  0  0  0  0  0  0  0  0  0
    0.0000    0.0000    0.0000 C   0  0  0  0  0  0  0  0  0  0  0  0
   -1.2990    0.7500    0.0000 C   0  0  0  0  0  0  0  0  0  0  0  0
   -2.5981    0.0000    0.0000 O   0  0  0  0  0  0  0  0  0  0  0  0
   -1.2990    2.2500    0.0000 O   0  0  0  0  0  0  0  0  0  0  0  0
    2.5981    1.5000    0.0000 C   0  0  0  0  0  0  0  0  0  0  0  0
    2.5981    3.0000    0.0000 C   0  0  0  0  0  0  0  0  0  0  0  0
    3.8971    3.7500    0.0000 O   0  0  0  0  0  0  0  0  0  0  0  0
    1.2990    3.7500    0.0000 O   0  0  0  0  0  0  0  0  0  0  0  0
  1  2  1  0
  2  3  1  0
  3  4  1  0
  3  5  2  0
  2  6  1  0
  6  7  1  0
  7  8  1  0
  7  9  2  0
  2 10  1  0
 10 11  1  0
 11 12  1  0
 11 13  2  0
M  END
>  <Name>  (17) 
2-Hydroxypropane-1,2,3-tricarboxylic_acid_(Citric_acid)

>  <logK_Am_z=3.0_T=25_I=0.1>  (17) 
7.73

>  <logK_Am_z=3.0_T=25_I=1.0>  (17) 
6.96

$$$$

     RDKit          2D

  8  8  0  0  0  0  0  0  0  0999 V2000
    1.0607    0.0000    0.0000 C   0  0  0  0  0  0  0  0  0  0  0  0
    2.5607    0.0000    0.0000 O   0  0  0  0  0  0  0  0  0  0  0  0
   -0.0000   -1.0607    0.0000 C   0  0  0  0  0  0  0  0  0  0  0  0
   -0.0000   -2.5607    0.0000 O   0  0  0  0  0  0  0  0  0  0  0  0
   -1.0607    0.0000    0.0000 C   0  0  0  0  0  0  0  0  0  0  0  0
   -2.5607    0.0000    0.0000 O   0  0  0  0  0  0  0  0  0  0  0  0
    0.0000    1.0607    0.0000 C   0  0  0  0  0  0  0  0  0  0  0  0
    0.0000    2.5607    0.0000 O   0  0  0  0  0  0  0  0  0  0  0  0
  1  2  1  0
  1  3  1  0
  3  4  2  0
  3  5  1  0
  5  6  2  0
  5  7  1  0
  7  8  1  0
  7  1  2  0
M  END
>  <Name>  (18) 
Dihydroxycyclobutenedione_(Squaric_acid)

>  <logK_Am_z=3.0_T=25_I=1.0>  (18) 
2.17

$$$$

     RDKit          2D

  3  2  0  0  0  0  0  0  0  0999 V2000
    1.2990    0.7500    0.0000 N   0  0  0  0  0  4  0  0  0  0  0  0
    0.0000    0.0000    0.0000 N   0  0  0  0  0  0  0  0  0  0  0  0
    2.5981    1.5000    0.0000 N   0  0  0  0  0  2  0  0  0  0  0  0
  1  2  2  0
  1  3  2  0
M  CHG  2   1   1   3  -1
M  END
>  <Name>  (19) 
Hydrogen_azide_(Hydrazoic_acid)

>  <logK_Am_z=3.0_T=25_I=0.5>  (19) 
0.67

>  <logK_Am_z=3.0_T=25_I=0.0>  (19) 
1.67

$$$$

     RDKit          2D

  1  0  0  0  0  0  0  0  0  0999 V2000
    0.0000    0.0000    0.0000 F   0  0  0  0  0  0  0  0  0  0  0  0
M  END
>  <Name>  (20) 
Hydrogen_fluoride_(Hydrofluoric_acid)

>  <logK_Am_z=3.0_T=25_I=0.1>  (20) 
2.59

>  <logK_Am_z=3.0_T=25_I=1.0>  (20) 
2.49

>  <logK_Am_z=3.0_T=25_I=0.0>  (20) 
3.4

$$$$

     RDKit          2D

  1  0  0  0  0  0  0  0  0  0999 V2000
    0.0000    0.0000    0.0000 Cl  0  0  0  0  0 15  0  0  0  0  0  0
M  CHG  1   1  -1
M  END
>  <Name>  (21) 
Chloride_ion

>  <logK_Am_z=3.0_T=20_I=1.0>  (21) 
-0.1

>  <logK_Am_z=3.0_T=20_I=3.0>  (21) 
-0.26

>  <logK_Am_z=3.0_T=25_I=4.0>  (21) 
-0.15

>  <logK_Am_z=3.0_T=20_I=4.0>  (21) 
-0.16

$$$$

     RDKit          2D

  5  4  0  0  0  0  0  0  0  0999 V2000
    1.2990    0.7500    0.0000 Cl  0  0  0  0  0  0  0  0  0  0  0  0
    0.0000    0.0000    0.0000 O   0  0  0  0  0  0  0  0  0  0  0  0
    2.5981    1.5000    0.0000 O   0  0  0  0  0  1  0  0  0  0  0  0
    2.0490   -0.5490    0.0000 O   0  0  0  0  0  0  0  0  0  0  0  0
    0.5490    2.0490    0.0000 O   0  0  0  0  0  0  0  0  0  0  0  0
  1  2  1  0
  1  3  1  0
  1  4  1  0
  1  5  1  0
M  CHG  5   1   3   2  -1   3  -1   4  -1   5  -1
M  END
>  <Name>  (22) 
Perchlorate_ion

>  <logK_Am_z=3.0_T=25_I=2.0>  (22) 
-0.07

$$$$

     RDKit          2D

  1  0  0  0  0  0  0  0  0  0999 V2000
    0.0000    0.0000    0.0000 Br  0  0  0  0  0 15  0  0  0  0  0  0
M  CHG  1   1  -1
M  END
>  <Name>  (23) 
Bromide_ion

>  <logK_Am_z=3.0_T=20_I=3.0>  (23) 
-0.5

$$$$

     RDKit          2D

 15 15  0  0  0  0  0  0  0  0999 V2000
   19.2131  -12.8342    0.0000 C   0  0  0  0  0  0  0  0  0  0  0  0
   17.8870  -12.9736    0.0000 C   0  0  0  0  0  0  0  0  0  0  0  0
   15.6333  -11.6668    0.0000 C   0  0  0  0  0  0  0  0  0  0  0  0
   15.0910  -10.4605    0.0000 C   0  0  0  0  0  0  0  0  0  0  0  0
   16.6252   -7.0183    0.0000 C   0  0  0  0  0  0  0  0  0  0  0  0
   15.6387   -7.9060    0.0000 C   0  0  0  0  0  0  0  0  0  0  0  0
   20.3733   -7.4108    0.0000 C   0  0  0  0  0  0  0  0  0  0  0  0
   19.2178   -6.7432    0.0000 C   0  0  0  0  0  0  0  0  0  0  0  0
   21.4284   -9.7893    0.0000 C   0  0  0  0  0  0  0  0  0  0  0  0
   21.1517  -11.0887    0.0000 C   0  0  0  0  0  0  0  0  0  0  0  0
   21.1468   -8.4836    0.0000 O   0  0  0  0  0  0  0  0  0  0  0  0
   17.8872   -6.6079    0.0000 O   0  0  0  0  0  0  0  0  0  0  0  0
   15.0906   -9.1260    0.0000 O   0  0  0  0  0  0  0  0  0  0  0  0
   16.6233  -12.5635    0.0000 O   0  0  0  0  0  0  0  0  0  0  0  0
   20.3603  -12.1719    0.0000 O   0  0  0  0  0  0  0  0  0  0  0  0
  1  2  1  0
  3  4  1  0
  5  6  1  0
  7  8  1  0
  9 10  1  0
  9 11  1  0
  7 11  1  0
  8 12  1  0
  5 12  1  0
  6 13  1  0
  4 13  1  0
  3 14  1  0
  2 14  1  0
  1 15  1  0
 10 15  1  0
M  END
>  <Name>  (24) 
15CROWN5

>  <logK_Am_z=3.0_T=25_I=1.0>  (24) 
0.21

$$$$

     RDKit          2D

 34 37  0  0  0  0  0  0  0  0999 V2000
   17.4634   -9.8526    0.0000 C   0  0  0  0  0  0  0  0  0  0  0  0
   16.7984  -11.0044    0.0000 N   0  0  0  0  0  0  0  0  0  0  0  0
   16.7984   -8.7008    0.0000 C   0  0  0  0  0  0  0  0  0  0  0  0
   15.4684  -11.0044    0.0000 C   0  0  0  0  0  0  0  0  0  0  0  0
   15.4684   -8.7008    0.0000 C   0  0  0  0  0  0  0  0  0  0  0  0
   14.8034   -9.8526    0.0000 C   0  0  0  0  0  0  0  0  0  0  0  0
   18.7934   -9.8526    0.0000 C   0  0  0  0  0  0  0  0  0  0  0  0
   19.4584   -8.7008    0.0000 C   0  0  0  0  0  0  0  0  0  0  0  0
   19.4584  -11.0044    0.0000 N   0  0  0  0  0  0  0  0  0  0  0  0
   20.7884   -8.7008    0.0000 C   0  0  0  0  0  0  0  0  0  0  0  0
   20.7884  -11.0044    0.0000 C   0  0  0  0  0  0  0  0  0  0  0  0
   21.4534   -9.8526    0.0000 C   0  0  0  0  0  0  0  0  0  0  0  0
   21.4534  -12.1562    0.0000 C   0  0  0  0  0  0  0  0  0  0  0  0
   14.8034  -12.1562    0.0000 C   0  0  0  0  0  0  0  0  0  0  0  0
   22.7834  -12.1562    0.0000 N   0  0  0  0  0  0  0  0  0  0  0  0
   13.4734  -12.1562    0.0000 N   0  0  0  0  0  0  0  0  0  0  0  0
   23.4484  -13.3080    0.0000 C   0  0  0  0  0  0  0  0  0  0  0  0
   24.7784  -13.3080    0.0000 C   0  0  0  0  0  0  0  0  0  0  0  0
   12.8084  -13.3080    0.0000 C   0  0  0  0  0  0  0  0  0  0  0  0
   11.4784  -13.3080    0.0000 C   0  0  0  0  0  0  0  0  0  0  0  0
   23.4484  -11.0044    0.0000 C   0  0  0  0  0  0  0  0  0  0  0  0
   22.7834   -9.8526    0.0000 C   0  0  0  0  0  0  0  0  0  0  0  0
   24.7784  -11.0044    0.0000 C   0  0  0  0  0  0  0  0  0  0  0  0
   23.4484   -8.7008    0.0000 C   0  0  0  0  0  0  0  0  0  0  0  0
   25.4434   -9.8526    0.0000 C   0  0  0  0  0  0  0  0  0  0  0  0
   24.7784   -8.7008    0.0000 C   0  0  0  0  0  0  0  0  0  0  0  0
   12.8084  -11.0044    0.0000 C   0  0  0  0  0  0  0  0  0  0  0  0
   11.4784  -11.0044    0.0000 C   0  0  0  0  0  0  0  0  0  0  0  0
   13.4734   -9.8526    0.0000 C   0  0  0  0  0  0  0  0  0  0  0  0
   10.8134   -9.8526    0.0000 C   0  0  0  0  0  0  0  0  0  0  0  0
   12.8084   -8.7008    0.0000 C   0  0  0  0  0  0  0  0  0  0  0  0
   11.4784   -8.7008    0.0000 C   0  0  0  0  0  0  0  0  0  0  0  0
   15.4684  -13.3080    0.0000 O   0  0  0  0  0  0  0  0  0  0  0  0
   20.7884  -13.3080    0.0000 O   0  0  0  0  0  0  0  0  0  0  0  0
  2  1  2  0
  3  1  1  0
  4  2  1  0
  5  3  2  0
  6  4  2  0
  6  5  1  0
  8  7  2  0
  9  7  1  0
 10  8  1  0
 11  9  2  0
 12 10  2  0
 12 11  1  0
  1  7  1  0
 11 13  1  0
  4 14  1  0
 13 15  1  0
 14 16  1  0
 15 17  1  0
 17 18  1  0
 16 19  1  0
 19 20  1  0
 22 21  2  0
 23 21  1  0
 24 22  1  0
 25 23  2  0
 26 24  2  0
 26 25  1  0
 15 21  1  0
 28 27  2  0
 29 27  1  0
 30 28  1  0
 31 29  2  0
 32 30  2  0
 32 31  1  0
 16 27  1  0
 14 33  2  0
 13 34  2  0
M  END
>  <Name>  (25) 
1BIPYDICAR

>  <logK_Am_z=3.0_T=25_I=1.0>  (25) 
7.5

$$$$

     RDKit          2D

 27 27  0  0  0  0  0  0  0  0999 V2000
   17.0954  -19.1528    0.0000 C   0  0  0  0  0  0  0  0  0  0  0  0
   17.0954  -20.4828    0.0000 C   0  0  0  0  0  0  0  0  0  0  0  0
   15.9436  -18.4878    0.0000 C   0  0  0  0  0  0  0  0  0  0  0  0
   15.9436  -21.1478    0.0000 C   0  0  0  0  0  0  0  0  0  0  0  0
   14.7918  -19.1528    0.0000 C   0  0  0  0  0  0  0  0  0  0  0  0
   14.7918  -20.4828    0.0000 C   0  0  0  0  0  0  0  0  0  0  0  0
   18.2473  -18.4878    0.0000 C   0  0  0  0  0  0  0  0  0  0  0  0
   19.3991  -19.1528    0.0000 N   0  0  0  0  0  0  0  0  0  0  0  0
   20.5509  -18.4878    0.0000 C   0  0  0  0  0  0  0  0  0  0  0  0
   21.7027  -19.1528    0.0000 C   0  0  0  0  0  0  0  0  0  0  0  0
   22.8545  -18.4878    0.0000 N   0  0  0  0  0  0  0  0  0  0  0  0
   22.8545  -17.1578    0.0000 C   0  0  0  0  0  0  0  0  0  0  0  0
   24.0063  -16.4928    0.0000 C   0  0  0  0  0  0  0  0  0  0  0  0
   24.0063  -19.1528    0.0000 C   0  0  0  0  0  0  0  0  0  0  0  0
   24.0063  -20.4828    0.0000 C   0  0  0  0  0  0  0  0  0  0  0  0
   18.2473  -17.1578    0.0000 C   0  0  0  0  0  0  0  0  0  0  0  0
   19.3991  -20.4828    0.0000 C   0  0  0  0  0  0  0  0  0  0  0  0
   20.5509  -21.1478    0.0000 C   0  0  0  0  0  0  0  0  0  0  0  0
   15.9436  -17.1578    0.0000 O   0  0  0  0  0  0  0  0  0  0  0  0
   19.3991  -16.4928    0.0000 O   0  0  0  0  0  0  0  0  0  0  0  0
   17.0954  -16.4928    0.0000 O   0  0  0  0  0  0  0  0  0  0  0  0
   20.5509  -22.4778    0.0000 O   0  0  0  0  0  0  0  0  0  0  0  0
   21.7027  -20.4828    0.0000 O   0  0  0  0  0  0  0  0  0  0  0  0
   25.1581  -21.1478    0.0000 O   0  0  0  0  0  0  0  0  0  0  0  0
   22.8545  -21.1478    0.0000 O   0  0  0  0  0  0  0  0  0  0  0  0
   25.1581  -17.1578    0.0000 O   0  0  0  0  0  0  0  0  0  0  0  0
   24.0063  -15.1628    0.0000 O   0  0  0  0  0  0  0  0  0  0  0  0
  2  1  1  0
  3  1  1  0
  4  2  1  0
  5  3  1  0
  6  4  1  0
  6  5  1  0
  1  7  1  0
  7  8  1  0
  8  9  1  0
  9 10  1  0
 10 11  1  0
 11 12  1  0
 12 13  1  0
 11 14  1  0
 14 15  1  0
  7 16  1  0
  8 17  1  0
 17 18  1  0
  3 19  1  0
 16 20  1  0
 16 21  2  0
 18 22  1  0
 18 23  2  0
 15 24  1  0
 15 25  2  0
 13 26  2  0
 13 27  1  0
M  END
>  <Name>  (26) 
2HCHEDTA

>  <logK_Am_z=3.0_T=25_I=1.0>  (26) 
16.09

$$$$

     RDKit          2D

 36 39  0  0  0  0  0  0  0  0999 V2000
   18.9004   -8.9060    0.0000 C   0  0  0  0  0  0  0  0  0  0  0  0
   18.2354  -10.0578    0.0000 N   0  0  0  0  0  0  0  0  0  0  0  0
   18.2354   -7.7541    0.0000 C   0  0  0  0  0  0  0  0  0  0  0  0
   16.9054  -10.0578    0.0000 C   0  0  0  0  0  0  0  0  0  0  0  0
   16.9054   -7.7541    0.0000 C   0  0  0  0  0  0  0  0  0  0  0  0
   16.2404   -8.9060    0.0000 C   0  0  0  0  0  0  0  0  0  0  0  0
   20.2304   -8.9060    0.0000 C   0  0  0  0  0  0  0  0  0  0  0  0
   20.8954   -7.7541    0.0000 C   0  0  0  0  0  0  0  0  0  0  0  0
   20.8954  -10.0578    0.0000 N   0  0  0  0  0  0  0  0  0  0  0  0
   22.2254   -7.7541    0.0000 C   0  0  0  0  0  0  0  0  0  0  0  0
   22.2254  -10.0578    0.0000 C   0  0  0  0  0  0  0  0  0  0  0  0
   22.8904   -8.9060    0.0000 C   0  0  0  0  0  0  0  0  0  0  0  0
   22.8904  -11.2096    0.0000 C   0  0  0  0  0  0  0  0  0  0  0  0
   16.2404  -11.2096    0.0000 C   0  0  0  0  0  0  0  0  0  0  0  0
   24.2204  -11.2096    0.0000 N   0  0  0  0  0  0  0  0  0  0  0  0
   14.9104  -11.2096    0.0000 N   0  0  0  0  0  0  0  0  0  0  0  0
   24.8854  -12.3614    0.0000 C   0  0  0  0  0  0  0  0  0  0  0  0
   26.2154  -12.3614    0.0000 C   0  0  0  0  0  0  0  0  0  0  0  0
   14.2454  -12.3614    0.0000 C   0  0  0  0  0  0  0  0  0  0  0  0
   12.9154  -12.3614    0.0000 C   0  0  0  0  0  0  0  0  0  0  0  0
   24.8854  -10.0578    0.0000 C   0  0  0  0  0  0  0  0  0  0  0  0
   24.2204   -8.9060    0.0000 C   0  0  0  0  0  0  0  0  0  0  0  0
   26.2154  -10.0578    0.0000 C   0  0  0  0  0  0  0  0  0  0  0  0
   24.8854   -7.7541    0.0000 C   0  0  0  0  0  0  0  0  0  0  0  0
   26.8804   -8.9060    0.0000 C   0  0  0  0  0  0  0  0  0  0  0  0
   26.2154   -7.7541    0.0000 C   0  0  0  0  0  0  0  0  0  0  0  0
   14.2454  -10.0578    0.0000 C   0  0  0  0  0  0  0  0  0  0  0  0
   12.9154  -10.0578    0.0000 C   0  0  0  0  0  0  0  0  0  0  0  0
   14.9104   -8.9060    0.0000 C   0  0  0  0  0  0  0  0  0  0  0  0
   12.2504   -8.9060    0.0000 C   0  0  0  0  0  0  0  0  0  0  0  0
   14.2454   -7.7541    0.0000 C   0  0  0  0  0  0  0  0  0  0  0  0
   12.9154   -7.7541    0.0000 C   0  0  0  0  0  0  0  0  0  0  0  0
   16.9054  -12.3614    0.0000 O   0  0  0  0  0  0  0  0  0  0  0  0
   22.2254  -12.3614    0.0000 O   0  0  0  0  0  0  0  0  0  0  0  0
   26.8804   -6.6023    0.0000 F   0  0  0  0  0  0  0  0  0  0  0  0
   12.2504   -6.6023    0.0000 F   0  0  0  0  0  0  0  0  0  0  0  0
  2  1  2  0
  3  1  1  0
  4  2  1  0
  5  3  2  0
  6  4  2  0
  6  5  1  0
  8  7  2  0
  9  7  1  0
 10  8  1  0
 11  9  2  0
 12 10  2  0
 12 11  1  0
  1  7  1  0
 11 13  1  0
  4 14  1  0
 13 15  1  0
 14 16  1  0
 15 17  1  0
 17 18  1  0
 16 19  1  0
 19 20  1  0
 22 21  2  0
 23 21  1  0
 24 22  1  0
 25 23  2  0
 26 24  2  0
 26 25  1  0
 15 21  1  0
 28 27  2  0
 29 27  1  0
 30 28  1  0
 31 29  2  0
 32 30  2  0
 32 31  1  0
 16 27  1  0
 14 33  2  0
 13 34  2  0
 26 35  1  0
 32 36  1  0
M  END
>  <Name>  (27) 
4BIPYDICAR

>  <logK_Am_z=3.0_T=25_I=1.0>  (27) 
7.3

$$$$

     RDKit          2D

 14 14  0  0  0  0  0  0  0  0999 V2000
   16.1184   -7.8491    0.0000 C   0  0  0  0  0  0  0  0  0  0  0  0
   16.1258   -9.1792    0.0000 C   0  0  0  0  0  0  0  0  0  0  0  0
   14.9706   -7.1864    0.0000 C   0  0  0  0  0  0  0  0  0  0  0  0
   14.9727   -9.8447    0.0000 C   0  0  0  0  0  0  0  0  0  0  0  0
   13.8125   -7.8470    0.0000 C   0  0  0  0  0  0  0  0  0  0  0  0
   13.8279   -9.1769    0.0000 C   0  0  0  0  0  0  0  0  0  0  0  0
   17.2675   -7.1758    0.0000 C   0  0  0  0  0  0  0  0  0  0  0  0
   18.4451   -7.7920    0.0000 O   0  0  0  0  0  0  0  0  0  0  0  0
   17.2453   -5.8420    0.0000 O   0  0  0  0  0  0  0  0  0  0  0  0
   17.2569   -9.8777    0.0000 O   0  0  0  0  0  0  0  0  0  0  0  0
   12.6451   -7.1744    0.0000 S   0  0  0  0  0  0  0  0  0  0  0  0
   11.4718   -6.4983    0.0000 O   0  0  0  0  0  0  0  0  0  0  0  0
   11.8694   -8.2782    0.0000 O   0  0  0  0  0  0  0  0  0  0  0  0
   13.2098   -5.9490    0.0000 O   0  0  0  0  0  0  0  0  0  0  0  0
  2  1  2  0
  3  1  1  0
  4  2  1  0
  5  3  2  0
  6  4  2  0
  6  5  1  0
  1  7  1  0
  7  8  1  0
  7  9  2  0
  2 10  1  0
  5 11  1  0
 11 12  1  0
 11 13  2  0
 11 14  2  0
M  END
>  <Name>  (28) 
5SULSAL

>  <logK_Am_z=3.0_T=25_I=1.0>  (28) 
8.06

$$$$

     RDKit          2D

 17 17  0  0  0  0  0  0  0  0999 V2000
   17.7576   -8.6891    0.0000 C   0  0  0  0  0  0  0  0  0  0  0  0
   17.7576  -10.0191    0.0000 C   0  0  0  0  0  0  0  0  0  0  0  0
   16.6058   -8.0241    0.0000 N   0  0  0  0  0  0  0  0  0  0  0  0
   16.6058  -10.6841    0.0000 C   0  0  0  0  0  0  0  0  0  0  0  0
   15.4539   -8.6891    0.0000 C   0  0  0  0  0  0  0  0  0  0  0  0
   15.4539  -10.0191    0.0000 C   0  0  0  0  0  0  0  0  0  0  0  0
   14.3021   -8.0241    0.0000 C   0  0  0  0  0  0  0  0  0  0  0  0
   18.9094   -8.0241    0.0000 C   0  0  0  0  0  0  0  0  0  0  0  0
   20.0612   -8.6891    0.0000 N   0  0  0  0  0  0  0  0  0  0  0  0
   21.2130   -8.0241    0.0000 C   0  0  0  0  0  0  0  0  0  0  0  0
   20.0612  -10.0191    0.0000 C   0  0  0  0  0  0  0  0  0  0  0  0
   21.2130   -6.6941    0.0000 C   0  0  0  0  0  0  0  0  0  0  0  0
   21.2130  -10.6841    0.0000 C   0  0  0  0  0  0  0  0  0  0  0  0
   20.0612   -6.0291    0.0000 O   0  0  0  0  0  0  0  0  0  0  0  0
   22.3648   -6.0291    0.0000 O   0  0  0  0  0  0  0  0  0  0  0  0
   22.3648  -10.0191    0.0000 O   0  0  0  0  0  0  0  0  0  0  0  0
   21.2130  -12.0141    0.0000 O   0  0  0  0  0  0  0  0  0  0  0  0
  2  1  2  0
  3  1  1  0
  4  2  1  0
  5  3  2  0
  6  4  2  0
  6  5  1  0
  5  7  1  0
  1  8  1  0
  8  9  1  0
  9 10  1  0
  9 11  1  0
 10 12  1  0
 11 13  1  0
 12 14  2  0
 12 15  1  0
 13 16  2  0
 13 17  1  0
M  END
>  <Name>  (29) 
6M2PIDA

>  <logK_Am_z=3.0_T=25_I=1.0>  (29) 
8.38

$$$$

     RDKit          2D

 23 23  0  0  0  0  0  0  0  0999 V2000
   13.3702   -9.3568    0.0000 C   0  0  0  0  0  0  0  0  0  0  0  0
   15.1354   -8.9024    0.0000 C   0  0  0  0  0  0  0  0  0  0  0  0
   18.1827   -8.2633    0.0000 C   0  0  0  0  0  0  0  0  0  0  0  0
   17.2406   -6.6315    0.0000 C   0  0  0  0  0  0  0  0  0  0  0  0
   19.7521  -10.9494    0.0000 C   0  0  0  0  0  0  0  0  0  0  0  0
   20.9728   -9.5039    0.0000 C   0  0  0  0  0  0  0  0  0  0  0  0
   20.0307   -7.8722    0.0000 O   0  0  0  0  0  0  0  0  0  0  0  0
   15.3550   -7.0536    0.0000 O   0  0  0  0  0  0  0  0  0  0  0  0
   14.8776  -11.9676    0.0000 C   0  0  0  0  0  0  0  0  0  0  0  0
   14.7326  -13.8011    0.0000 C   0  0  0  0  0  0  0  0  0  0  0  0
   17.6658  -13.2371    0.0000 C   0  0  0  0  0  0  0  0  0  0  0  0
   19.3986  -13.9772    0.0000 C   0  0  0  0  0  0  0  0  0  0  0  0
   16.3769  -14.5645    0.0000 O   0  0  0  0  0  0  0  0  0  0  0  0
   13.2004  -11.1954    0.0000 N   0  0  0  0  0  0  0  0  0  0  0  0
   20.6394  -12.5665    0.0000 N   0  0  0  0  0  0  0  0  0  0  0  0
   22.2772  -13.4577    0.0000 C   0  0  0  0  0  0  0  0  0  0  0  0
   23.8679  -12.4849    0.0000 C   0  0  0  0  0  0  0  0  0  0  0  0
   11.3531  -11.4489    0.0000 C   0  0  0  0  0  0  0  0  0  0  0  0
   10.6491  -13.1755    0.0000 C   0  0  0  0  0  0  0  0  0  0  0  0
   23.8208  -10.6209    0.0000 O   0  0  0  0  0  0  0  0  0  0  0  0
   25.5058  -13.3761    0.0000 O   0  0  0  0  0  0  0  0  0  0  0  0
   11.7923  -14.6485    0.0000 O   0  0  0  0  0  0  0  0  0  0  0  0
    8.8018  -13.4290    0.0000 O   0  0  0  0  0  0  0  0  0  0  0  0
  1  2  1  0
  3  4  1  0
  5  6  1  0
  6  7  1  0
  3  7  1  0
  4  8  1  0
  2  8  1  0
  9 10  1  0
 11 12  1  0
 11 13  1  0
 10 13  1  0
  9 14  1  0
  1 14  1  0
 12 15  1  0
  5 15  1  0
 15 16  1  0
 16 17  1  0
 14 18  1  0
 18 19  1  0
 17 20  1  0
 17 21  2  0
 19 22  1  0
 19 23  2  0
M  END
>  <Name>  (30) 
A2-15C5-8

>  <logK_Am_z=3.0_T=25_I=1.0>  (30) 
12.86

$$$$

     RDKit          2D

 26 26  0  0  0  0  0  0  0  0999 V2000
   22.7759   -9.6684    0.0000 C   0  0  0  0  0  0  0  0  0  0  0  0
   21.3669   -8.8550    0.0000 C   0  0  0  0  0  0  0  0  0  0  0  0
   19.9826   -6.4468    0.0000 C   0  0  0  0  0  0  0  0  0  0  0  0
   18.5995   -7.2572    0.0000 C   0  0  0  0  0  0  0  0  0  0  0  0
   15.8189   -8.8696    0.0000 C   0  0  0  0  0  0  0  0  0  0  0  0
   15.8074   -7.2541    0.0000 C   0  0  0  0  0  0  0  0  0  0  0  0
   17.2122   -6.4562    0.0000 O   0  0  0  0  0  0  0  0  0  0  0  0
   21.3771   -7.2520    0.0000 O   0  0  0  0  0  0  0  0  0  0  0  0
   14.4339  -11.2684    0.0000 C   0  0  0  0  0  0  0  0  0  0  0  0
   15.8212  -12.0694    0.0000 C   0  0  0  0  0  0  0  0  0  0  0  0
   21.3723  -13.6847    0.0000 C   0  0  0  0  0  0  0  0  0  0  0  0
   21.3825  -12.0817    0.0000 C   0  0  0  0  0  0  0  0  0  0  0  0
   17.2055  -14.4775    0.0000 C   0  0  0  0  0  0  0  0  0  0  0  0
   18.5886  -13.6671    0.0000 C   0  0  0  0  0  0  0  0  0  0  0  0
   19.9976  -14.4806    0.0000 O   0  0  0  0  0  0  0  0  0  0  0  0
   15.8110  -13.6724    0.0000 O   0  0  0  0  0  0  0  0  0  0  0  0
   14.4141   -9.6674    0.0000 N   0  0  0  0  0  0  0  0  0  0  0  0
   22.7656  -11.2714    0.0000 N   0  0  0  0  0  0  0  0  0  0  0  0
   24.3440  -11.5760    0.0000 C   0  0  0  0  0  0  0  0  0  0  0  0
   24.8694  -13.0953    0.0000 C   0  0  0  0  0  0  0  0  0  0  0  0
   12.8352   -9.3656    0.0000 C   0  0  0  0  0  0  0  0  0  0  0  0
   12.3070   -7.8474    0.0000 C   0  0  0  0  0  0  0  0  0  0  0  0
   10.7281   -7.5456    0.0000 O   0  0  0  0  0  0  0  0  0  0  0  0
   13.3579   -6.6308    0.0000 O   0  0  0  0  0  0  0  0  0  0  0  0
   26.4478  -13.3999    0.0000 O   0  0  0  0  0  0  0  0  0  0  0  0
   23.8164  -14.3099    0.0000 O   0  0  0  0  0  0  0  0  0  0  0  0
  1  2  1  0
  3  4  1  0
  5  6  1  0
  6  7  1  0
  4  7  1  0
  3  8  1  0
  2  8  1  0
  9 10  1  0
 11 12  1  0
 13 14  1  0
 14 15  1  0
 11 15  1  0
 13 16  1  0
 10 16  1  0
  9 17  1  0
  5 17  1  0
 12 18  1  0
  1 18  1  0
 18 19  1  0
 19 20  1  0
 17 21  1  0
 21 22  1  0
 22 23  1  0
 22 24  2  0
 20 25  1  0
 20 26  2  0
M  END
>  <Name>  (31) 
A2-18C6-17

>  <logK_Am_z=3.0_T=25_I=1.0>  (31) 
13.33

$$$$

     RDKit          2D

 12 11  0  0  0  0  0  0  0  0999 V2000
   10.1498   -8.4118    0.0000 C   0  0  0  0  0  0  0  0  0  0  0  0
   11.3017   -9.0768    0.0000 N   0  0  0  0  0  0  0  0  0  0  0  0
   12.4535   -8.4118    0.0000 C   0  0  0  0  0  0  0  0  0  0  0  0
   13.6053   -9.0768    0.0000 C   0  0  0  0  0  0  0  0  0  0  0  0
   14.7571   -8.4118    0.0000 C   0  0  0  0  0  0  0  0  0  0  0  0
   15.9089   -9.0768    0.0000 C   0  0  0  0  0  0  0  0  0  0  0  0
   17.0607   -8.4118    0.0000 C   0  0  0  0  0  0  0  0  0  0  0  0
   18.2125   -9.0768    0.0000 O   0  0  0  0  0  0  0  0  0  0  0  0
   17.0607   -7.0818    0.0000 O   0  0  0  0  0  0  0  0  0  0  0  0
   15.9089  -10.4068    0.0000 N   0  0  0  0  0  0  0  0  0  0  0  0
    8.9980   -9.0768    0.0000 N   0  0  0  0  0  0  0  0  0  0  0  0
   10.1498   -7.0818    0.0000 N   0  0  0  0  0  0  0  0  0  0  0  0
  2  1  1  0
  3  2  1  0
  4  3  1  0
  5  4  1  0
  6  5  1  0
  7  6  1  0
  7  8  1  0
  7  9  2  0
 10  6  1  0
  1 11  2  0
  1 12  1  0
M  END
>  <Name>  (32) 
ARGININE

>  <logK_Am_z=3.0_T=25_I=1.0>  (32) 
3.8

$$$$

     RDKit          2D

  9  8  0  0  0  0  0  0  0  0999 V2000
   10.2510   -9.0906    0.0000 O   0  0  0  0  0  0  0  0  0  0  0  0
   11.4028   -9.7556    0.0000 C   0  0  0  0  0  0  0  0  0  0  0  0
   12.5546   -9.0906    0.0000 C   0  0  0  0  0  0  0  0  0  0  0  0
   13.7064   -9.7556    0.0000 C   0  0  0  0  0  0  0  0  0  0  0  0
   14.8582   -9.0906    0.0000 C   0  0  0  0  0  0  0  0  0  0  0  0
   11.4028  -11.0856    0.0000 O   0  0  0  0  0  0  0  0  0  0  0  0
   16.0100   -9.7556    0.0000 O   0  0  0  0  0  0  0  0  0  0  0  0
   14.8582   -7.7606    0.0000 O   0  0  0  0  0  0  0  0  0  0  0  0
   13.7064  -11.0856    0.0000 N   0  0  0  0  0  0  0  0  0  0  0  0
  2  1  1  0
  3  2  1  0
  4  3  1  0
  5  4  1  0
  2  6  2  0
  5  7  1  0
  5  8  2  0
  4  9  1  0
M  END
>  <Name>  (33) 
ASPARTIC

>  <logK_Am_z=3.0_T=25_I=1.0>  (33) 
4.81

$$$$

     RDKit          3D

 34 40  0  0  0  0  0  0  0  0999 V2000
   15.7017   -8.6610    0.0000 C   0  0  0  0  0  0  0  0  0  0  0  0
   15.7017   -9.9910    0.0000 N   0  0  0  0  0  0  0  0  0  0  0  0
   14.5498   -7.9960    0.0000 C   0  0  0  0  0  0  0  0  0  0  0  0
   14.5498  -10.6560    0.0000 C   0  0  0  0  0  0  0  0  0  0  0  0
   13.3980   -8.6610    0.0000 C   0  0  0  0  0  0  0  0  0  0  0  0
   13.3980   -9.9910    0.0000 C   0  0  0  0  0  0  0  0  0  0  0  0
   16.8536   -6.6660    0.0000 C   0  0  0  0  0  0  0  0  0  0  0  0
   16.8536   -7.9960    0.0000 C   0  0  0  0  0  0  0  0  0  0  0  0
   15.7017   -6.0010    0.0000 C   0  0  0  0  0  0  0  0  0  0  0  0
   14.5499   -6.6660    0.0000 C   0  0  0  0  0  0  0  0  0  0  0  0
   19.1573   -6.6660    0.0000 C   0  0  0  0  0  0  0  0  0  0  0  0
   19.1573   -7.9960    0.0000 C   0  0  0  0  0  0  0  0  0  0  0  0
   18.0054   -6.0010    0.0000 C   0  0  0  0  0  0  0  0  0  0  0  0
   18.0054   -8.6610    0.0000 N   0  0  0  0  0  0  0  0  0  0  0  0
   20.3092   -8.6611    0.0000 C   0  0  0  0  0  0  0  0  0  0  0  0
   21.4611   -7.9961    0.0000 N   0  0  0  0  0  0  0  0  0  0  0  0
   20.3092   -9.9912    0.0000 N   0  0  0  0  0  0  0  0  0  0  0  0
   22.6130   -8.6612    0.0000 C   0  0  0  0  0  0  0  0  0  0  0  0
   21.4610  -10.6563    0.0000 C   0  0  0  0  0  0  0  0  0  0  0  0
   22.6129   -9.9913    0.0000 C   0  0  0  0  0  0  0  0  0  0  0  0
   23.7648   -7.9963    0.0000 C   0  0  0  0  0  0  0  0  0  0  0  0
   24.9166   -8.6615    0.0000 C   0  0  0  0  0  0  0  0  0  0  0  0
   23.7647  -10.6563    0.0000 C   0  0  0  0  0  0  0  0  0  0  0  0
   24.9165   -9.9914    0.0000 C   0  0  0  0  0  0  0  0  0  0  0  0
   14.5498  -11.9861    0.0000 C   0  0  0  0  0  0  0  0  0  0  0  0
   15.7016  -12.6512    0.0000 N   0  0  0  0  0  0  0  0  0  0  0  0
   13.3978  -12.6512    0.0000 N   0  0  0  0  0  0  0  0  0  0  0  0
   15.7015  -13.9813    0.0000 C   0  0  0  0  0  0  0  0  0  0  0  0
   13.3978  -13.9812    0.0000 C   0  0  0  0  0  0  0  0  0  0  0  0
   14.5497  -14.6463    0.0000 C   0  0  0  0  0  0  0  0  0  0  0  0
   12.2460  -14.6462    0.0000 C   0  0  0  0  0  0  0  0  0  0  0  0
   12.2460  -15.9763    0.0000 C   0  0  0  0  0  0  0  0  0  0  0  0
   14.5496  -15.9763    0.0000 C   0  0  0  0  0  0  0  0  0  0  0  0
   13.3978  -16.6413    0.0000 C   0  0  0  0  0  0  0  0  0  0  0  0
  2  1  2  0
  3  1  1  0
  4  2  1  0
  5  3  2  0
  6  4  2  0
  6  5  1  0
  9  7  2  0
  1  8  1  0
 10  9  1  0
  3 10  1  0
 12 11  1  0
 13 11  2  0
 14 12  2  0
  7 13  1  0
  8 14  1  0
  8  7  1  0
 16 15  2  0
 17 15  1  0
 18 16  1  0
 19 17  2  0
 20 19  1  0
 12 15  1  0
 21 18  2  0
 20 18  1  0
 22 21  1  0
 23 20  2  0
 24 22  2  0
 24 23  1  0
 26 25  2  0
 27 25  1  0
 28 26  1  0
 29 27  2  0
 30 28  2  0
  4 25  1  0
 31 29  1  0
 30 29  1  0
 32 31  2  0
 33 30  1  0
 34 32  1  0
 34 33  2  0
M  END
>  <Name>  (34) 
BQPHEN

>  <logK_Am_z=3.0_T=25_I=1.0>  (34) 
7.99

$$$$

     RDKit          2D

 10  9  0  0  0  0  0  0  0  0999 V2000
   17.0551   -7.7150    0.0000 C   0  0  0  0  0  0  0  0  0  0  0  0
   18.6947   -8.6616    0.0000 C   0  0  0  0  0  0  0  0  0  0  0  0
   20.3343   -7.7150    0.0000 N   0  0  0  0  0  0  0  0  0  0  0  0
   15.4154   -8.6616    0.0000 N   0  0  0  0  0  0  0  0  0  0  0  0
   21.9740   -8.6616    0.0000 C   0  0  0  0  0  0  0  0  0  0  0  0
   13.7758   -7.7150    0.0000 C   0  0  0  0  0  0  0  0  0  0  0  0
   23.6136   -7.7150    0.0000 O   0  0  0  0  0  0  0  0  0  0  0  0
   21.9740  -10.5549    0.0000 O   0  0  0  0  0  0  0  0  0  0  0  0
   13.7758   -5.8217    0.0000 O   0  0  0  0  0  0  0  0  0  0  0  0
   12.1362   -8.6616    0.0000 O   0  0  0  0  0  0  0  0  0  0  0  0
  1  2  1  0
  2  3  1  0
  1  4  1  0
  3  5  1  0
  4  6  1  0
  5  7  1  0
  5  8  2  0
  6  9  1  0
  6 10  2  0
M  END
>  <Name>  (35) 
EDDA

>  <logK_Am_z=3.0_T=25_I=1.0>  (35) 
10.21

$$$$

     RDKit          2D

 24 23  0  0  0  0  0  0  0  0999 V2000
   17.1744   -8.5075    0.0000 C   0  0  0  0  0  0  0  0  0  0  0  0
   19.1017   -8.7023    0.0000 C   0  0  0  0  0  0  0  0  0  0  0  0
   20.1516  -10.3342    0.0000 N   0  0  0  0  0  0  0  0  0  0  0  0
   16.1972  -10.2000    0.0000 N   0  0  0  0  0  0  0  0  0  0  0  0
   21.9999  -10.1474    0.0000 C   0  0  0  0  0  0  0  0  0  0  0  0
   19.2597  -12.0165    0.0000 C   0  0  0  0  0  0  0  0  0  0  0  0
   14.3364   -9.8224    0.0000 C   0  0  0  0  0  0  0  0  0  0  0  0
   16.5019  -12.0588    0.0000 C   0  0  0  0  0  0  0  0  0  0  0  0
   23.6991  -10.8812    0.0000 P   0  0  0  0  0  0  0  0  0  0  0  0
   19.9830  -13.7760    0.0000 P   0  0  0  0  0  0  0  0  0  0  0  0
   13.2835   -8.2891    0.0000 P   0  0  0  0  0  0  0  0  0  0  0  0
   15.1789  -13.4463    0.0000 P   0  0  0  0  0  0  0  0  0  0  0  0
   25.6930  -10.9285    0.0000 O   0  0  0  0  0  0  0  0  0  0  0  0
   24.2056   -8.9584    0.0000 O   0  0  0  0  0  0  0  0  0  0  0  0
   24.1772  -12.7316    0.0000 O   0  0  0  0  0  0  0  0  0  0  0  0
   21.2282  -15.3199    0.0000 O   0  0  0  0  0  0  0  0  0  0  0  0
   18.7721  -15.2400    0.0000 O   0  0  0  0  0  0  0  0  0  0  0  0
   21.6793  -13.0044    0.0000 O   0  0  0  0  0  0  0  0  0  0  0  0
   11.9667   -6.8414    0.0000 O   0  0  0  0  0  0  0  0  0  0  0  0
   11.7072   -9.4368    0.0000 O   0  0  0  0  0  0  0  0  0  0  0  0
   14.6157   -6.8951    0.0000 O   0  0  0  0  0  0  0  0  0  0  0  0
   13.7988  -14.8566    0.0000 O   0  0  0  0  0  0  0  0  0  0  0  0
   16.1684  -15.0787    0.0000 O   0  0  0  0  0  0  0  0  0  0  0  0
   13.5037  -12.4735    0.0000 O   0  0  0  0  0  0  0  0  0  0  0  0
  1  2  1  0
  2  3  1  0
  1  4  1  0
  3  5  1  0
  3  6  1  0
  4  7  1  0
  4  8  1  0
  5  9  1  0
  6 10  1  0
  7 11  1  0
  8 12  1  0
  9 13  1  0
  9 14  1  0
  9 15  2  0
 10 16  1  0
 10 17  1  0
 10 18  2  0
 11 19  1  0
 11 20  1  0
 11 21  2  0
 12 22  1  0
 12 23  1  0
 12 24  2  0
M  END
>  <Name>  (36) 
EDTMP

>  <logK_Am_z=3.0_T=25_I=1.0>  (36) 
22.47

$$$$

     RDKit          2D

  9  9  0  0  0  0  0  0  0  0999 V2000
   17.1711   -8.6896    0.0000 C   0  0  0  0  0  0  0  0  0  0  0  0
   17.9528   -7.6136    0.0000 C   0  0  0  0  0  0  0  0  0  0  0  0
   17.9528   -9.7656    0.0000 C   0  0  0  0  0  0  0  0  0  0  0  0
   19.2177   -8.0246    0.0000 C   0  0  0  0  0  0  0  0  0  0  0  0
   19.2177   -9.3546    0.0000 C   0  0  0  0  0  0  0  0  0  0  0  0
   17.5418   -6.3487    0.0000 C   0  0  0  0  0  0  0  0  0  0  0  0
   20.2937   -7.2428    0.0000 C   0  0  0  0  0  0  0  0  0  0  0  0
   21.5087   -7.7838    0.0000 O   0  0  0  0  0  0  0  0  0  0  0  0
   20.1547   -5.9201    0.0000 O   0  0  0  0  0  0  0  0  0  0  0  0
  2  1  1  0
  3  1  2  0
  4  2  1  0
  5  3  1  0
  5  4  2  0
  2  6  2  0
  4  7  1  0
  7  8  1  0
  7  9  2  0
M  END
>  <Name>  (37) 
FULVIC

>  <logK_Am_z=3.0_T=25_I=1.0>  (37) 
5.78

$$$$

     RDKit          2D

  9  9  0  0  0  0  0  0  0  0999 V2000
   17.5794   -9.7427    0.0000 C   0  0  0  0  0  0  0  0  0  0  0  0
   17.5794  -11.0727    0.0000 C   0  0  0  0  0  0  0  0  0  0  0  0
   16.4276   -9.0777    0.0000 C   0  0  0  0  0  0  0  0  0  0  0  0
   16.4276  -11.7377    0.0000 N   0  0  0  0  0  0  0  0  0  0  0  0
   15.2758   -9.7427    0.0000 C   0  0  0  0  0  0  0  0  0  0  0  0
   15.2758  -11.0727    0.0000 C   0  0  0  0  0  0  0  0  0  0  0  0
   18.7312  -11.7377    0.0000 C   0  0  0  0  0  0  0  0  0  0  0  0
   19.8830  -11.0727    0.0000 O   0  0  0  0  0  0  0  0  0  0  0  0
   18.7312  -13.0677    0.0000 O   0  0  0  0  0  0  0  0  0  0  0  0
  2  1  2  0
  3  1  1  0
  4  2  1  0
  5  3  2  0
  6  4  2  0
  6  5  1  0
  2  7  1  0
  7  8  2  0
  7  9  1  0
M  END
>  <Name>  (38) 
HAPS

>  <logK_Am_z=3.0_T=25_I=1.0>  (38) 
4.28

$$$$

     RDKit          2D

 10 10  0  0  0  0  0  0  0  0999 V2000
   18.5729  -10.3035    0.0000 C   0  0  0  0  0  0  0  0  0  0  0  0
   18.5729  -11.6335    0.0000 N   0  0  0  0  0  0  0  0  0  0  0  0
   17.4211   -9.6385    0.0000 C   0  0  0  0  0  0  0  0  0  0  0  0
   17.4211  -12.2985    0.0000 C   0  0  0  0  0  0  0  0  0  0  0  0
   16.2692  -10.3035    0.0000 C   0  0  0  0  0  0  0  0  0  0  0  0
   16.2692  -11.6335    0.0000 C   0  0  0  0  0  0  0  0  0  0  0  0
   19.7247   -9.6385    0.0000 C   0  0  0  0  0  0  0  0  0  0  0  0
   19.7247   -8.3085    0.0000 O   0  0  0  0  0  0  0  0  0  0  0  0
   20.8765  -10.3035    0.0000 O   0  0  0  0  0  0  0  0  0  0  0  0
   19.7247  -12.2985    0.0000 O   0  0  0  0  0  0  0  0  0  0  0  0
  2  1  2  0
  3  1  1  0
  4  2  1  0
  5  3  2  0
  6  4  2  0
  6  5  1  0
  1  7  1  0
  7  8  1  0
  7  9  2  0
  2 10  1  0
M  CHG  2   2   1  10  -1
M  END
>  <Name>  (39) 
HAPSNO

>  <logK_Am_z=3.0_T=25_I=1.0>  (39) 
3.09

$$$$

     RDKit          2D

 11 10  0  0  0  0  0  0  0  0999 V2000
   14.9417  -11.3290    0.0000 P   0  0  0  0  0  0  0  0  0  0  0  0
   13.4236  -12.1991    0.0000 C   0  0  0  0  0  0  0  0  0  0  0  0
   13.4231  -13.9593    0.0000 C   0  0  0  0  0  0  0  0  0  0  0  0
   14.0551   -9.8154    0.0000 C   0  0  0  0  0  0  0  0  0  0  0  0
   12.3114   -9.8105    0.0000 C   0  0  0  0  0  0  0  0  0  0  0  0
   16.4492  -10.4528    0.0000 C   0  0  0  0  0  0  0  0  0  0  0  0
   16.4603   -8.6988    0.0000 C   0  0  0  0  0  0  0  0  0  0  0  0
   17.9724  -11.3323    0.0000 C   0  0  0  0  0  0  0  0  0  0  0  0
   17.9778  -13.0819    0.0000 O   0  0  0  0  0  0  0  0  0  0  0  0
   19.4964  -10.4517    0.0000 O   0  0  0  0  0  0  0  0  0  0  0  0
   15.8176  -12.8366    0.0000 O   0  0  0  0  0  0  0  0  0  0  0  0
  1  2  1  0
  2  3  1  0
  1  4  1  0
  4  5  1  0
  1  6  1  0
  6  7  1  0
  6  8  1  0
  8  9  1  0
  8 10  2  0
  1 11  2  0
M  END
>  <Name>  (40) 
HDEPP

>  <logK_Am_z=3.0_T=25_I=1.0>  (40) 
1.76

$$$$

     RDKit          2D

  7  6  0  0  0  0  0  0  0  0999 V2000
   15.8630  -10.9539    0.0000 C   0  0  0  0  0  0  0  0  0  0  0  0
   18.0642   -9.6830    0.0000 C   0  0  0  0  0  0  0  0  0  0  0  0
   20.2654   -8.4122    0.0000 C   0  0  0  0  0  0  0  0  0  0  0  0
   16.7934   -7.4818    0.0000 C   0  0  0  0  0  0  0  0  0  0  0  0
   22.4666   -9.6830    0.0000 O   0  0  0  0  0  0  0  0  0  0  0  0
   20.2654   -5.8705    0.0000 O   0  0  0  0  0  0  0  0  0  0  0  0
   19.3351  -11.8842    0.0000 O   0  0  0  0  0  0  0  0  0  0  0  0
  1  2  1  0
  2  3  1  0
  2  4  1  0
  3  5  1  0
  3  6  2  0
  2  7  1  0
M  END
>  <Name>  (41) 
HIBA

>  <logK_Am_z=3.0_T=25_I=1.0>  (41) 
2.88

$$$$

     RDKit          2D

 29 28  0  0  0  0  0  0  0  0999 V2000
   15.9639  -14.8297    0.0000 C   0  0  0  0  0  0  0  0  0  0  0  0
   17.7074  -13.8374    0.0000 C   0  0  0  0  0  0  0  0  0  0  0  0
   17.7074  -11.8258    0.0000 C   0  0  0  0  0  0  0  0  0  0  0  0
   15.9639  -10.8200    0.0000 O   0  0  0  0  0  0  0  0  0  0  0  0
   14.2204  -13.8374    0.0000 N   0  0  0  0  0  0  0  0  0  0  0  0
   19.4372  -14.8297    0.0000 N   0  0  0  0  0  0  0  0  0  0  0  0
   19.4372  -16.8413    0.0000 C   0  0  0  0  0  0  0  0  0  0  0  0
   21.1671  -17.8471    0.0000 C   0  0  0  0  0  0  0  0  0  0  0  0
   21.1671  -13.8374    0.0000 C   0  0  0  0  0  0  0  0  0  0  0  0
   22.9106  -14.8297    0.0000 C   0  0  0  0  0  0  0  0  0  0  0  0
   24.6540  -13.8374    0.0000 N   0  0  0  0  0  0  0  0  0  0  0  0
   24.6540  -11.8258    0.0000 C   0  0  0  0  0  0  0  0  0  0  0  0
   26.3975  -10.8200    0.0000 C   0  0  0  0  0  0  0  0  0  0  0  0
   26.3975  -14.8297    0.0000 C   0  0  0  0  0  0  0  0  0  0  0  0
   26.3975  -16.8413    0.0000 C   0  0  0  0  0  0  0  0  0  0  0  0
   14.2204  -11.8258    0.0000 C   0  0  0  0  0  0  0  0  0  0  0  0
   12.4770  -10.8200    0.0000 C   0  0  0  0  0  0  0  0  0  0  0  0
   12.4770  -14.8297    0.0000 C   0  0  0  0  0  0  0  0  0  0  0  0
   12.4770  -16.8413    0.0000 C   0  0  0  0  0  0  0  0  0  0  0  0
   28.1404  -11.8258    0.0000 O   0  0  0  0  0  0  0  0  0  0  0  0
   26.3975   -8.8083    0.0000 O   0  0  0  0  0  0  0  0  0  0  0  0
   24.6540  -17.8471    0.0000 O   0  0  0  0  0  0  0  0  0  0  0  0
   28.1404  -17.8471    0.0000 O   0  0  0  0  0  0  0  0  0  0  0  0
   22.9106  -16.8413    0.0000 O   0  0  0  0  0  0  0  0  0  0  0  0
   21.1671  -19.8588    0.0000 O   0  0  0  0  0  0  0  0  0  0  0  0
   10.7341  -11.8258    0.0000 O   0  0  0  0  0  0  0  0  0  0  0  0
   12.4770   -8.8083    0.0000 O   0  0  0  0  0  0  0  0  0  0  0  0
   14.2204  -17.8471    0.0000 O   0  0  0  0  0  0  0  0  0  0  0  0
   10.7341  -17.8471    0.0000 O   0  0  0  0  0  0  0  0  0  0  0  0
  1  2  1  0
  2  3  1  0
  3  4  1  0
  1  5  1  0
  2  6  1  0
  6  7  1  0
  7  8  1  0
  6  9  1  0
  9 10  1  0
 10 11  1  0
 11 12  1  0
 12 13  1  0
 11 14  1  0
 14 15  1  0
  5 16  1  0
 16 17  1  0
  5 18  1  0
 18 19  1  0
 13 20  1  0
 13 21  2  0
 15 22  1  0
 15 23  2  0
  8 24  1  0
  8 25  2  0
 17 26  1  0
 17 27  2  0
 19 28  1  0
 19 29  2  0
M  END
>  <Name>  (42) 
HMDTPA

>  <logK_Am_z=3.0_T=25_I=1.0>  (42) 
22.63

$$$$

     RDKit          2D

 19 20  0  0  0  0  0  0  0  0999 V2000
   22.6575   -6.5226    0.0000 C   0  0  0  0  0  0  0  0  0  0  0  0
   23.8369   -7.1598    0.0000 C   0  0  0  0  0  0  0  0  0  0  0  0
   21.5342   -7.1711    0.0000 C   0  0  0  0  0  0  0  0  0  0  0  0
   23.8636   -8.4934    0.0000 C   0  0  0  0  0  0  0  0  0  0  0  0
   21.5583   -8.5336    0.0000 C   0  0  0  0  0  0  0  0  0  0  0  0
   22.7222   -9.1762    0.0000 C   0  0  0  0  0  0  0  0  0  0  0  0
   20.3800   -9.2110    0.0000 P   0  0  0  0  0  0  0  0  0  0  0  0
   16.7950   -8.5379    0.0000 C   0  0  0  0  0  0  0  0  0  0  0  0
   16.7568   -7.1964    0.0000 C   0  0  0  0  0  0  0  0  0  0  0  0
   15.6326   -9.1903    0.0000 C   0  0  0  0  0  0  0  0  0  0  0  0
   15.6283   -6.5111    0.0000 C   0  0  0  0  0  0  0  0  0  0  0  0
   14.4816   -8.5175    0.0000 C   0  0  0  0  0  0  0  0  0  0  0  0
   14.4661   -7.1850    0.0000 C   0  0  0  0  0  0  0  0  0  0  0  0
   17.9791   -9.2085    0.0000 P   0  0  0  0  0  0  0  0  0  0  0  0
   17.4229  -10.4414    0.0000 C   0  0  0  0  0  0  0  0  0  0  0  0
   19.1769   -9.7715    0.0000 C   0  0  0  0  0  0  0  0  0  0  0  0
   18.3391   -7.9297    0.0000 O   0  0  0  0  0  0  0  0  0  0  0  0
   20.9412  -10.4424    0.0000 O   0  0  0  0  0  0  0  0  0  0  0  0
   19.9937   -7.9410    0.0000 O   0  0  0  0  0  0  0  0  0  0  0  0
  2  1  2  0
  3  1  1  0
  4  2  1  0
  5  3  2  0
  6  4  2  0
  6  5  1  0
  5  7  1  0
  9  8  2  0
 10  8  1  0
 11  9  1  0
 12 10  2  0
 13 11  2  0
 13 12  1  0
  8 14  1  0
 14 15  1  0
 14 16  1  0
  7 16  1  0
 14 17  2  0
  7 18  2  0
  7 19  1  0
M  END
>  <Name>  (43) 
MPPMPP

>  <logK_Am_z=3.0_T=25_I=1.0>  (43) 
3.35

$$$$

     RDKit          2D

 51 53  0  0  0  0  0  0  0  0999 V2000
   18.6135  -18.2507    0.0000 P   0  0  0  0  0  0  0  0  0  0  0  0
   19.1980  -19.4461    0.0000 O   0  0  0  0  0  0  0  0  0  0  0  0
   17.9296  -17.0970    0.0000 O   0  0  0  0  0  0  0  0  0  0  0  0
   19.7861  -17.6113    0.0000 O   0  0  0  0  0  0  0  0  0  0  0  0
   17.4921  -18.9634    0.0000 O   0  0  0  0  0  0  0  0  0  0  0  0
   20.9241  -18.2669    0.0000 C   0  0  0  0  0  0  0  0  0  0  0  0
   21.0606  -19.5708    0.0000 C   0  0  0  0  0  0  0  0  0  0  0  0
   22.0759  -17.6019    0.0000 C   0  0  0  0  0  0  0  0  0  0  0  0
   22.2056  -20.1255    0.0000 C   0  0  0  0  0  0  0  0  0  0  0  0
   23.1714  -18.3017    0.0000 C   0  0  0  0  0  0  0  0  0  0  0  0
   23.4057  -19.6005    0.0000 C   0  0  0  0  0  0  0  0  0  0  0  0
   25.1330  -17.9376    0.0000 C   0  0  0  0  0  0  0  0  0  0  0  0
   26.4095  -17.6253    0.0000 C   0  0  0  0  0  0  0  0  0  0  0  0
   24.7117  -19.1991    0.0000 C   0  0  0  0  0  0  0  0  0  0  0  0
   27.3752  -18.5315    0.0000 C   0  0  0  0  0  0  0  0  0  0  0  0
   25.7131  -20.0303    0.0000 C   0  0  0  0  0  0  0  0  0  0  0  0
   26.9903  -19.8065    0.0000 C   0  0  0  0  0  0  0  0  0  0  0  0
   23.1117  -23.2261    0.0000 C   0  0  0  0  0  0  0  0  0  0  0  0
   24.3818  -23.6039    0.0000 C   0  0  0  0  0  0  0  0  0  0  0  0
   22.7466  -21.9623    0.0000 C   0  0  0  0  0  0  0  0  0  0  0  0
   25.2828  -22.6225    0.0000 C   0  0  0  0  0  0  0  0  0  0  0  0
   23.6236  -20.9582    0.0000 C   0  0  0  0  0  0  0  0  0  0  0  0
   24.8375  -21.4168    0.0000 C   0  0  0  0  0  0  0  0  0  0  0  0
   17.5217  -20.2994    0.0000 C   0  0  0  0  0  0  0  0  0  0  0  0
   16.3394  -20.9168    0.0000 C   0  0  0  0  0  0  0  0  0  0  0  0
   15.4066  -19.9630    0.0000 N   0  0  0  0  0  0  0  0  0  0  0  0
   16.2126  -22.2058    0.0000 C   0  0  0  0  0  0  0  0  0  0  0  0
   15.4612  -18.6703    0.0000 C   0  0  0  0  0  0  0  0  0  0  0  0
   14.6555  -17.6905    0.0000 C   0  0  0  0  0  0  0  0  0  0  0  0
   14.2266  -20.4596    0.0000 C   0  0  0  0  0  0  0  0  0  0  0  0
   13.1125  -19.8248    0.0000 C   0  0  0  0  0  0  0  0  0  0  0  0
   15.3586  -16.4895    0.0000 O   0  0  0  0  0  0  0  0  0  0  0  0
   13.4289  -17.2767    0.0000 O   0  0  0  0  0  0  0  0  0  0  0  0
   12.3217  -20.8502    0.0000 O   0  0  0  0  0  0  0  0  0  0  0  0
   12.3738  -18.7609    0.0000 O   0  0  0  0  0  0  0  0  0  0  0  0
   15.0911  -22.9235    0.0000 N   0  0  0  0  0  0  0  0  0  0  0  0
   15.2966  -24.2340    0.0000 C   0  0  0  0  0  0  0  0  0  0  0  0
   14.3399  -25.1241    0.0000 C   0  0  0  0  0  0  0  0  0  0  0  0
   14.6543  -26.4231    0.0000 O   0  0  0  0  0  0  0  0  0  0  0  0
   13.0565  -24.8685    0.0000 O   0  0  0  0  0  0  0  0  0  0  0  0
   13.8739  -22.4164    0.0000 C   0  0  0  0  0  0  0  0  0  0  0  0
   12.7100  -22.8947    0.0000 C   0  0  0  0  0  0  0  0  0  0  0  0
   11.4577  -22.5116    0.0000 N   0  0  0  0  0  0  0  0  0  0  0  0
   10.5373  -23.4252    0.0000 C   0  0  0  0  0  0  0  0  0  0  0  0
   10.3072  -24.6553    0.0000 C   0  0  0  0  0  0  0  0  0  0  0  0
   10.7589  -21.4552    0.0000 C   0  0  0  0  0  0  0  0  0  0  0  0
    9.9863  -20.5018    0.0000 C   0  0  0  0  0  0  0  0  0  0  0  0
    8.9961  -24.9777    0.0000 O   0  0  0  0  0  0  0  0  0  0  0  0
   11.1069  -25.7067    0.0000 O   0  0  0  0  0  0  0  0  0  0  0  0
   10.2641  -19.2056    0.0000 O   0  0  0  0  0  0  0  0  0  0  0  0
    8.6451  -20.7073    0.0000 O   0  0  0  0  0  0  0  0  0  0  0  0
  1  2  2  0
  1  3  1  0
  1  4  1  0
  1  5  1  0
  7  6  1  0
  8  6  1  0
  9  7  1  0
 10  8  1  0
 11  9  1  0
 11 10  1  0
  4  6  1  0
 13 12  2  0
 14 12  1  0
 15 13  1  0
 16 14  2  0
 17 15  2  0
 17 16  1  0
 11 14  1  0
 19 18  2  0
 20 18  1  0
 21 19  1  0
 22 20  2  0
 23 21  2  0
 23 22  1  0
 11 22  1  0
  5 24  1  0
 24 25  1  0
 25 26  1  0
 25 27  1  0
 26 28  1  0
 28 29  1  0
 26 30  1  0
 30 31  1  0
 29 32  1  0
 29 33  2  0
 31 34  1  0
 31 35  2  0
 27 36  1  0
 36 37  1  0
 37 38  1  0
 38 39  1  0
 38 40  2  0
 36 41  1  0
 41 42  1  0
 42 43  1  0
 43 44  1  0
 44 45  1  0
 43 46  1  0
 46 47  1  0
 45 48  1  0
 45 49  2  0
 47 50  1  0
 47 51  2  0
M  END
>  <Name>  (44) 
MS325

>  <logK_Am_z=3.0_T=25_I=1.0>  (44) 
21.65

$$$$

     RDKit          2D

 12 11  0  0  0  0  0  0  0  0999 V2000
   15.4730   -9.1241    0.0000 N   0  0  0  0  0  0  0  0  0  0  0  0
   14.2506   -8.4184    0.0000 C   0  0  0  0  0  0  0  0  0  0  0  0
   15.4569  -10.5347    0.0000 C   0  0  0  0  0  0  0  0  0  0  0  0
   14.2397   -7.0067    0.0000 C   0  0  0  0  0  0  0  0  0  0  0  0
   14.2454  -11.2535    0.0000 C   0  0  0  0  0  0  0  0  0  0  0  0
   16.7009   -8.4309    0.0000 C   0  0  0  0  0  0  0  0  0  0  0  0
   17.9249   -9.1302    0.0000 C   0  0  0  0  0  0  0  0  0  0  0  0
   19.1442   -8.4145    0.0000 O   0  0  0  0  0  0  0  0  0  0  0  0
   15.4200   -6.2371    0.0000 O   0  0  0  0  0  0  0  0  0  0  0  0
   12.9892   -6.3387    0.0000 O   0  0  0  0  0  0  0  0  0  0  0  0
   12.9841  -10.6198    0.0000 O   0  0  0  0  0  0  0  0  0  0  0  0
   14.2885  -12.6713    0.0000 O   0  0  0  0  0  0  0  0  0  0  0  0
  1  2  1  0
  1  3  1  0
  2  4  1  0
  3  5  1  0
  1  6  1  0
  6  7  1  0
  7  8  1  0
  4  9  1  0
  4 10  2  0
  5 11  1  0
  5 12  2  0
M  END
>  <Name>  (45) 
NHIDA

>  <logK_Am_z=3.0_T=25_I=1.0>  (45) 
9.3

$$$$

     RDKit          2D

  9  9  0  0  0  0  0  0  0  0999 V2000
   20.0336  -10.0411    0.0000 C   0  0  0  0  0  0  0  0  0  0  0  0
   19.3686  -11.1929    0.0000 C   0  0  0  0  0  0  0  0  0  0  0  0
   19.3686   -8.8893    0.0000 C   0  0  0  0  0  0  0  0  0  0  0  0
   18.0386  -11.1929    0.0000 N   0  0  0  0  0  0  0  0  0  0  0  0
   18.0386   -8.8893    0.0000 C   0  0  0  0  0  0  0  0  0  0  0  0
   17.3736  -10.0411    0.0000 C   0  0  0  0  0  0  0  0  0  0  0  0
   21.3636  -10.0411    0.0000 C   0  0  0  0  0  0  0  0  0  0  0  0
   22.0286   -8.8893    0.0000 O   0  0  0  0  0  0  0  0  0  0  0  0
   22.0286  -11.1929    0.0000 O   0  0  0  0  0  0  0  0  0  0  0  0
  2  1  2  0
  3  1  1  0
  4  2  1  0
  5  3  2  0
  6  4  2  0
  6  5  1  0
  1  7  1  0
  7  8  1  0
  7  9  2  0
M  END
>  <Name>  (46) 
NICOTINIC

>  <logK_Am_z=3.0_T=25_I=1.0>  (46) 
3.18

$$$$

     RDKit          2D

 12 11  0  0  0  0  0  0  0  0999 V2000
    9.2872   -8.3403    0.0000 C   0  0  0  0  0  0  0  0  0  0  0  0
   10.4432   -8.9978    0.0000 C   0  0  0  0  0  0  0  0  0  0  0  0
   11.5990   -8.3403    0.0000 O   0  0  0  0  0  0  0  0  0  0  0  0
   12.7551   -8.9978    0.0000 C   0  0  0  0  0  0  0  0  0  0  0  0
   13.8930   -8.3403    0.0000 C   0  0  0  0  0  0  0  0  0  0  0  0
   15.0491   -8.9978    0.0000 O   0  0  0  0  0  0  0  0  0  0  0  0
   16.2048   -8.3403    0.0000 C   0  0  0  0  0  0  0  0  0  0  0  0
   17.3609   -8.9978    0.0000 C   0  0  0  0  0  0  0  0  0  0  0  0
   17.3609  -10.3318    0.0000 O   0  0  0  0  0  0  0  0  0  0  0  0
   18.5167   -8.3403    0.0000 O   0  0  0  0  0  0  0  0  0  0  0  0
    9.2872   -7.0063    0.0000 O   0  0  0  0  0  0  0  0  0  0  0  0
    8.1314   -8.9978    0.0000 O   0  0  0  0  0  0  0  0  0  0  0  0
  2  1  1  0
  3  2  1  0
  4  3  1  0
  5  4  1  0
  6  5  1  0
  7  6  1  0
  8  7  1  0
  8  9  1  0
  8 10  2  0
  1 11  1  0
  1 12  2  0
M  END
>  <Name>  (47) 
O2DC6

>  <logK_Am_z=3.0_T=25_I=1.0>  (47) 
5.39

$$$$

     RDKit          2D

 16 16  0  0  0  0  0  0  0  0999 V2000
   17.5936   -7.7077    0.0000 C   0  0  0  0  0  0  0  0  0  0  0  0
   18.2582   -8.8589    0.0000 C   0  0  0  0  0  0  0  0  0  0  0  0
   16.2793   -7.6992    0.0000 C   0  0  0  0  0  0  0  0  0  0  0  0
   17.6085  -10.0014    0.0000 C   0  0  0  0  0  0  0  0  0  0  0  0
   15.6139   -8.8508    0.0000 C   0  0  0  0  0  0  0  0  0  0  0  0
   16.2785  -10.0019    0.0000 C   0  0  0  0  0  0  0  0  0  0  0  0
   15.6176  -11.1609    0.0000 O   0  0  0  0  0  0  0  0  0  0  0  0
   18.2685  -11.1446    0.0000 N   0  0  0  0  0  0  0  0  0  0  0  0
   17.6031  -12.2962    0.0000 C   0  0  0  0  0  0  0  0  0  0  0  0
   18.2677  -13.4473    0.0000 C   0  0  0  0  0  0  0  0  0  0  0  0
   19.5828  -11.1532    0.0000 C   0  0  0  0  0  0  0  0  0  0  0  0
   20.2482  -10.0016    0.0000 C   0  0  0  0  0  0  0  0  0  0  0  0
   19.5977  -13.4469    0.0000 O   0  0  0  0  0  0  0  0  0  0  0  0
   17.6068  -14.6064    0.0000 O   0  0  0  0  0  0  0  0  0  0  0  0
   19.5882   -8.8584    0.0000 O   0  0  0  0  0  0  0  0  0  0  0  0
   21.5781  -10.0013    0.0000 O   0  0  0  0  0  0  0  0  0  0  0  0
  2  1  2  0
  3  1  1  0
  4  2  1  0
  5  3  2  0
  6  4  2  0
  6  5  1  0
  6  7  1  0
  4  8  1  0
  8  9  1  0
  9 10  1  0
  8 11  1  0
 11 12  1  0
 10 13  1  0
 10 14  2  0
 12 15  1  0
 12 16  2  0
M  END
>  <Name>  (48) 
OHPIDA

>  <logK_Am_z=3.0_T=25_I=1.0>  (48) 
6.8

$$$$

     RDKit          2D

 12 11  0  0  0  0  0  0  0  0999 V2000
   12.5401   -9.4299    0.0000 C   0  0  0  0  0  0  0  0  0  0  0  0
   13.6961  -10.0875    0.0000 C   0  0  0  0  0  0  0  0  0  0  0  0
   14.8519   -9.4299    0.0000 C   0  0  0  0  0  0  0  0  0  0  0  0
   16.0080  -10.0875    0.0000 C   0  0  0  0  0  0  0  0  0  0  0  0
   17.1459   -9.4299    0.0000 C   0  0  0  0  0  0  0  0  0  0  0  0
   18.3020  -10.0875    0.0000 C   0  0  0  0  0  0  0  0  0  0  0  0
   19.4577   -9.4299    0.0000 C   0  0  0  0  0  0  0  0  0  0  0  0
   20.6138  -10.0875    0.0000 C   0  0  0  0  0  0  0  0  0  0  0  0
   12.5401   -8.0960    0.0000 O   0  0  0  0  0  0  0  0  0  0  0  0
   11.3843  -10.0875    0.0000 O   0  0  0  0  0  0  0  0  0  0  0  0
   20.6138  -11.4214    0.0000 O   0  0  0  0  0  0  0  0  0  0  0  0
   21.7695   -9.4299    0.0000 O   0  0  0  0  0  0  0  0  0  0  0  0
  2  1  1  0
  3  2  1  0
  4  3  1  0
  5  4  1  0
  6  5  1  0
  7  6  1  0
  8  7  1  0
  1  9  2  0
  1 10  1  0
  8 11  2  0
  8 12  1  0
M  END
>  <Name>  (49) 
SUBERIC

>  <logK_Am_z=3.0_T=25_I=1.0>  (49) 
2.92

$$$$

     RDKit          2D

  9  8  0  0  0  0  0  0  0  0999 V2000
   14.9784   -9.9309    0.0000 C   0  0  0  0  0  0  0  0  0  0  0  0
   16.1302  -10.5959    0.0000 C   0  0  0  0  0  0  0  0  0  0  0  0
   17.2820   -9.9309    0.0000 O   0  0  0  0  0  0  0  0  0  0  0  0
   18.4338  -10.5959    0.0000 C   0  0  0  0  0  0  0  0  0  0  0  0
   19.5856   -9.9309    0.0000 C   0  0  0  0  0  0  0  0  0  0  0  0
   20.7374  -10.5959    0.0000 O   0  0  0  0  0  0  0  0  0  0  0  0
   19.5856   -8.6009    0.0000 O   0  0  0  0  0  0  0  0  0  0  0  0
   14.9784   -8.6009    0.0000 O   0  0  0  0  0  0  0  0  0  0  0  0
   13.8265  -10.5959    0.0000 S   0  0  0  0  0  0  0  0  0  0  0  0
  2  1  1  0
  3  2  1  0
  4  3  1  0
  5  4  1  0
  5  6  1  0
  5  7  2  0
  1  8  1  0
  1  9  2  0
M  END
>  <Name>  (50) 
TDGA

>  <logK_Am_z=3.0_T=25_I=1.0>  (50) 
3.52

$$$$

     RDKit          2D

 14 14  0  0  0  0  0  0  0  0999 V2000
   17.4932  -10.5886    0.0000 C   0  0  0  0  0  0  0  0  0  0  0  0
   18.2749   -9.5126    0.0000 S   0  0  0  0  0  0  0  0  0  0  0  0
   18.2749  -11.6646    0.0000 C   0  0  0  0  0  0  0  0  0  0  0  0
   19.5398   -9.9236    0.0000 C   0  0  0  0  0  0  0  0  0  0  0  0
   19.5398  -11.2536    0.0000 C   0  0  0  0  0  0  0  0  0  0  0  0
   20.6158   -9.1419    0.0000 C   0  0  0  0  0  0  0  0  0  0  0  0
   21.8308   -9.6828    0.0000 C   0  0  0  0  0  0  0  0  0  0  0  0
   22.9068   -8.9011    0.0000 C   0  0  0  0  0  0  0  0  0  0  0  0
   24.1218   -9.4421    0.0000 C   0  0  0  0  0  0  0  0  0  0  0  0
   20.4768   -7.8192    0.0000 O   0  0  0  0  0  0  0  0  0  0  0  0
   22.7678   -7.5784    0.0000 O   0  0  0  0  0  0  0  0  0  0  0  0
   24.6628   -8.2270    0.0000 F   0  0  0  0  0  0  0  0  0  0  0  0
   23.5809  -10.6571    0.0000 F   0  0  0  0  0  0  0  0  0  0  0  0
   25.3369   -9.9830    0.0000 F   0  0  0  0  0  0  0  0  0  0  0  0
  2  1  1  0
  3  1  2  0
  4  2  1  0
  5  3  1  0
  5  4  2  0
  4  6  1  0
  6  7  1  0
  7  8  1  0
  8  9  1  0
  6 10  2  0
  8 11  2  0
  9 12  1  0
  9 13  1  0
  9 14  1  0
M  END
>  <Name>  (51) 
TFACETONE

>  <logK_Am_z=3.0_T=25_I=1.0>  (51) 
3.4

$$$$
