
     RDKit          2D

  5  4  0  0  0  0  0  0  0  0999 V2000
    1.2990    0.7500    0.0000 C   0  0  0  0  0  0  0  0  0  0  0  0
    0.0000    0.0000    0.0000 C   0  0  0  0  0  0  0  0  0  0  0  0
   -1.2990    0.7500    0.0000 N   0  0  0  0  0  0  0  0  0  0  0  0
    2.5981   -0.0000    0.0000 O   0  0  0  0  0  0  0  0  0  0  0  0
    1.2990    2.2500    0.0000 O   0  0  0  0  0  0  0  0  0  0  0  0
  1  2  1  0
  2  3  1  0
  1  4  1  0
  1  5  2  0
M  END
>  <Name>  (1) 
Aminoacetic_acid_(Glycine)

>  <logK_Dy_z=3.0_T=25_I=0.1>  (1) 
3.6

$$$$

     RDKit          2D

  9  8  0  0  0  0  0  0  0  0999 V2000
   -2.5981    0.0000    0.0000 O   0  0  0  0  0  0  0  0  0  0  0  0
   -1.2990    0.7500    0.0000 C   0  0  0  0  0  0  0  0  0  0  0  0
    0.0000    0.0000    0.0000 C   0  0  0  0  0  0  0  0  0  0  0  0
    1.2990    0.7500    0.0000 C   0  0  0  0  0  0  0  0  0  0  0  0
    2.5981   -0.0000    0.0000 C   0  0  0  0  0  0  0  0  0  0  0  0
    2.5981   -1.5000    0.0000 O   0  0  0  0  0  0  0  0  0  0  0  0
    3.8971    0.7500    0.0000 O   0  0  0  0  0  0  0  0  0  0  0  0
    1.2990    2.2500    0.0000 N   0  0  0  0  0  0  0  0  0  0  0  0
   -1.2990    2.2500    0.0000 O   0  0  0  0  0  0  0  0  0  0  0  0
  1  2  1  0
  2  3  1  0
  3  4  1  0
  4  5  1  0
  5  6  2  0
  5  7  1  0
  4  8  1  6
  2  9  2  0
M  END
>  <Name>  (2) 
L-Aminobutanedioic_acid_(Aspartic_acid)

>  <logK_Dy_z=3.0_T=25_I=0.1>  (2) 
5.85

$$$$

     RDKit          2D

 12 11  0  0  0  0  0  0  0  0999 V2000
    1.2990    2.2500    0.0000 O   0  0  0  0  0  0  0  0  0  0  0  0
    1.2990    0.7500    0.0000 C   0  0  0  0  0  0  0  0  0  0  0  0
    0.0000    0.0000    0.0000 C   0  0  0  0  0  0  0  0  0  0  0  0
   -1.2990    0.7500    0.0000 N   0  0  0  0  0  0  0  0  0  0  0  0
   -2.5981    0.0000    0.0000 C   0  0  0  0  0  0  0  0  0  0  0  0
   -3.8971    0.7500    0.0000 C   0  0  0  0  0  0  0  0  0  0  0  0
   -5.1962    0.0000    0.0000 N   0  0  0  0  0  0  0  0  0  0  0  0
   -6.4952    0.7500    0.0000 C   0  0  0  0  0  0  0  0  0  0  0  0
   -7.7942    0.0000    0.0000 C   0  0  0  0  0  0  0  0  0  0  0  0
   -9.0933    0.7500    0.0000 O   0  0  0  0  0  0  0  0  0  0  0  0
   -7.7942   -1.5000    0.0000 O   0  0  0  0  0  0  0  0  0  0  0  0
    2.5981   -0.0000    0.0000 O   0  0  0  0  0  0  0  0  0  0  0  0
  1  2  2  0
  2  3  1  0
  3  4  1  0
  4  5  1  0
  5  6  1  0
  6  7  1  0
  7  8  1  0
  8  9  1  0
  9 10  1  0
  9 11  2  0
  2 12  1  0
M  END
>  <Name>  (3) 
Ethylenediiminodiacetic_acid_(EDDA)

>  <logK_Dy_z=3.0_T=25_I=0.1>  (3) 
8.31

$$$$

     RDKit          2D

 18 17  0  0  0  0  0  0  0  0999 V2000
    0.0000    0.0000    0.0000 C   0  0  0  0  0  0  0  0  0  0  0  0
    1.2990    0.7500    0.0000 C   0  0  0  0  0  0  0  0  0  0  0  0
    2.5981   -0.0000    0.0000 N   0  0  0  0  0  0  0  0  0  0  0  0
    3.8971    0.7500    0.0000 C   0  0  0  0  0  0  0  0  0  0  0  0
    5.1962   -0.0000    0.0000 C   0  0  0  0  0  0  0  0  0  0  0  0
    5.1962   -1.5000    0.0000 O   0  0  0  0  0  0  0  0  0  0  0  0
    6.4952    0.7500    0.0000 O   0  0  0  0  0  0  0  0  0  0  0  0
    3.8971    2.2500    0.0000 C   0  0  0  0  0  0  0  0  0  0  0  0
    2.5981    3.0000    0.0000 O   0  0  0  0  0  0  0  0  0  0  0  0
    5.1962    3.0000    0.0000 O   0  0  0  0  0  0  0  0  0  0  0  0
   -1.2990    0.7500    0.0000 N   0  0  0  0  0  0  0  0  0  0  0  0
   -2.5981    0.0000    0.0000 C   0  0  0  0  0  0  0  0  0  0  0  0
   -3.8971    0.7500    0.0000 C   0  0  0  0  0  0  0  0  0  0  0  0
   -3.8971    2.2500    0.0000 O   0  0  0  0  0  0  0  0  0  0  0  0
   -5.1962    0.0000    0.0000 O   0  0  0  0  0  0  0  0  0  0  0  0
   -2.5981   -1.5000    0.0000 C   0  0  0  0  0  0  0  0  0  0  0  0
   -1.2990   -2.2500    0.0000 O   0  0  0  0  0  0  0  0  0  0  0  0
   -3.8971   -2.2500    0.0000 O   0  0  0  0  0  0  0  0  0  0  0  0
  1  2  1  0
  2  3  1  0
  3  4  1  0
  4  5  1  0
  5  6  2  0
  5  7  1  0
  4  8  1  0
  8  9  2  0
  8 10  1  0
  1 11  1  0
 11 12  1  0
 12 13  1  0
 13 14  2  0
 13 15  1  0
 12 16  1  0
 16 17  2  0
 16 18  1  0
M  END
>  <Name>  (4) 
Ethylenediiminodipropanedioic_acid_(EDDM)

>  <logK_Dy_z=3.0_T=20_I=0.1>  (4) 
12.54

$$$$

     RDKit          2D

 20 19  0  0  0  0  0  0  0  0999 V2000
   -2.5981    0.0000    0.0000 O   0  0  0  0  0  0  0  0  0  0  0  0
   -1.2990    0.7500    0.0000 C   0  0  0  0  0  0  0  0  0  0  0  0
   -1.2990    2.2500    0.0000 O   0  0  0  0  0  0  0  0  0  0  0  0
    0.0000    0.0000    0.0000 C   0  0  0  0  0  0  0  0  0  0  0  0
    1.2990    0.7500    0.0000 C   0  0  0  0  0  0  0  0  0  0  0  0
    1.2990    2.2500    0.0000 N   0  0  0  0  0  0  0  0  0  0  0  0
    2.5981    3.0000    0.0000 C   0  0  0  0  0  0  0  0  0  0  0  0
    2.5981    4.5000    0.0000 C   0  0  0  0  0  0  0  0  0  0  0  0
    3.8971    5.2500    0.0000 N   0  0  0  0  0  0  0  0  0  0  0  0
    3.8971    6.7500    0.0000 C   0  0  0  0  0  0  0  0  0  0  0  0
    5.1962    7.5000    0.0000 C   0  0  0  0  0  0  0  0  0  0  0  0
    5.1962    9.0000    0.0000 C   0  0  0  0  0  0  0  0  0  0  0  0
    6.4952    9.7500    0.0000 O   0  0  0  0  0  0  0  0  0  0  0  0
    3.8971    9.7500    0.0000 O   0  0  0  0  0  0  0  0  0  0  0  0
    2.5981    7.5000    0.0000 C   0  0  0  0  0  0  0  0  0  0  0  0
    2.5981    9.0000    0.0000 O   0  0  0  0  0  0  0  0  0  0  0  0
    1.2990    6.7500    0.0000 O   0  0  0  0  0  0  0  0  0  0  0  0
    2.5981   -0.0000    0.0000 C   0  0  0  0  0  0  0  0  0  0  0  0
    3.8971    0.7500    0.0000 O   0  0  0  0  0  0  0  0  0  0  0  0
    2.5981   -1.5000    0.0000 O   0  0  0  0  0  0  0  0  0  0  0  0
  1  2  1  0
  2  3  2  0
  2  4  1  0
  4  5  1  0
  5  6  1  0
  6  7  1  0
  7  8  1  0
  8  9  1  0
  9 10  1  0
 10 11  1  0
 11 12  1  0
 12 13  1  0
 12 14  2  0
 10 15  1  0
 15 16  1  0
 15 17  2  0
  5 18  1  0
 18 19  1  0
 18 20  2  0
M  END
>  <Name>  (5) 
Ethylenediiminodibutanedioic_acid_(EDDS)

>  <logK_Dy_z=3.0_T=25_I=0.1>  (5) 
13.59

>  <logK_Dy_z=3.0_T=20_I=0.1>  (5) 
13.75

$$$$

     RDKit          2D

 22 21  0  0  0  0  0  0  0  0999 V2000
    1.2990    2.2500    0.0000 O   0  0  0  0  0  0  0  0  0  0  0  0
    1.2990    0.7500    0.0000 C   0  0  0  0  0  0  0  0  0  0  0  0
    0.0000    0.0000    0.0000 C   0  0  0  0  0  0  0  0  0  0  0  0
   -1.2990    0.7500    0.0000 N   0  0  0  0  0  0  0  0  0  0  0  0
   -2.5981    0.0000    0.0000 C   0  0  0  0  0  0  0  0  0  0  0  0
   -2.5981   -1.5000    0.0000 C   0  0  0  0  0  0  0  0  0  0  0  0
   -1.2990   -2.2500    0.0000 O   0  0  0  0  0  0  0  0  0  0  0  0
   -3.8971   -2.2500    0.0000 O   0  0  0  0  0  0  0  0  0  0  0  0
   -3.8971    0.7500    0.0000 C   0  0  0  0  0  0  0  0  0  0  0  0
   -5.1962    0.0000    0.0000 C   0  0  0  0  0  0  0  0  0  0  0  0
   -5.1962   -1.5000    0.0000 O   0  0  0  0  0  0  0  0  0  0  0  0
   -6.4952    0.7500    0.0000 O   0  0  0  0  0  0  0  0  0  0  0  0
    2.5981   -0.0000    0.0000 C   0  0  0  0  0  0  0  0  0  0  0  0
    3.8971    0.7500    0.0000 N   0  0  0  0  0  0  0  0  0  0  0  0
    5.1962   -0.0000    0.0000 C   0  0  0  0  0  0  0  0  0  0  0  0
    5.1962   -1.5000    0.0000 C   0  0  0  0  0  0  0  0  0  0  0  0
    3.8971   -2.2500    0.0000 O   0  0  0  0  0  0  0  0  0  0  0  0
    6.4952   -2.2500    0.0000 O   0  0  0  0  0  0  0  0  0  0  0  0
    6.4952    0.7500    0.0000 C   0  0  0  0  0  0  0  0  0  0  0  0
    7.7942   -0.0000    0.0000 C   0  0  0  0  0  0  0  0  0  0  0  0
    7.7942   -1.5000    0.0000 O   0  0  0  0  0  0  0  0  0  0  0  0
    9.0933    0.7500    0.0000 O   0  0  0  0  0  0  0  0  0  0  0  0
  1  2  1  0
  2  3  1  0
  3  4  1  0
  4  5  1  0
  5  6  1  0
  6  7  2  0
  6  8  1  0
  5  9  1  0
  9 10  1  0
 10 11  2  0
 10 12  1  0
  2 13  1  0
 13 14  1  0
 14 15  1  0
 15 16  1  0
 16 17  2  0
 16 18  1  0
 15 19  1  0
 19 20  1  0
 20 21  2  0
 20 22  1  0
M  END
>  <Name>  (6) 
2-Hydroxy-1,3-propylenediiminodibutanedioic_acid_(rac-_or_meso-isomer_not_stated)

>  <logK_Dy_z=3.0_T=25_I=0.1>  (6) 
12.0

$$$$

     RDKit          2D

 11 10  0  0  0  0  0  0  0  0999 V2000
    1.2990    0.7500    0.0000 C   0  0  0  0  0  0  0  0  0  0  0  0
    2.5981   -0.0000    0.0000 O   0  0  0  0  0  0  0  0  0  0  0  0
    0.0000    0.0000    0.0000 C   0  0  0  0  0  0  0  0  0  0  0  0
   -1.2990    0.7500    0.0000 N   0  0  0  0  0  0  0  0  0  0  0  0
   -2.5981    0.0000    0.0000 C   0  0  0  0  0  0  0  0  0  0  0  0
   -3.8971    0.7500    0.0000 C   0  0  0  0  0  0  0  0  0  0  0  0
   -5.1962    0.0000    0.0000 O   0  0  0  0  0  0  0  0  0  0  0  0
   -1.2990    2.2500    0.0000 C   0  0  0  0  0  0  0  0  0  0  0  0
   -2.5981    3.0000    0.0000 C   0  0  0  0  0  0  0  0  0  0  0  0
   -2.5981    4.5000    0.0000 O   0  0  0  0  0  0  0  0  0  0  0  0
    1.2990    2.2500    0.0000 O   0  0  0  0  0  0  0  0  0  0  0  0
  1  2  1  0
  1  3  1  0
  3  4  1  0
  4  5  1  0
  5  6  1  0
  6  7  1  0
  4  8  1  0
  8  9  1  0
  9 10  1  0
  1 11  2  0
M  END
>  <Name>  (7) 
N,N-Bis(2-hydroxyethyl)glycine_(Bicine)

>  <logK_Dy_z=3.0_T=20_I=0.1>  (7) 
5.41

$$$$

     RDKit          2D

 12 11  0  0  0  0  0  0  0  0999 V2000
    3.8971    5.2500    0.0000 O   0  0  0  0  0  0  0  0  0  0  0  0
    2.5981    4.5000    0.0000 C   0  0  0  0  0  0  0  0  0  0  0  0
    2.5981    3.0000    0.0000 C   0  0  0  0  0  0  0  0  0  0  0  0
    1.2990    2.2500    0.0000 N   0  0  0  0  0  0  0  0  0  0  0  0
    1.2990    0.7500    0.0000 C   0  0  0  0  0  0  0  0  0  0  0  0
    0.0000    0.0000    0.0000 C   0  0  0  0  0  0  0  0  0  0  0  0
    2.5981   -0.0000    0.0000 C   0  0  0  0  0  0  0  0  0  0  0  0
    2.5981   -1.5000    0.0000 O   0  0  0  0  0  0  0  0  0  0  0  0
    3.8971    0.7500    0.0000 O   0  0  0  0  0  0  0  0  0  0  0  0
   -0.0000    3.0000    0.0000 C   0  0  0  0  0  0  0  0  0  0  0  0
   -0.0000    4.5000    0.0000 C   0  0  0  0  0  0  0  0  0  0  0  0
   -1.2990    5.2500    0.0000 O   0  0  0  0  0  0  0  0  0  0  0  0
  1  2  1  0
  2  3  1  0
  3  4  1  0
  4  5  1  0
  5  6  1  0
  5  7  1  0
  7  8  2  0
  7  9  1  0
  4 10  1  0
 10 11  1  0
 11 12  1  0
M  END
>  <Name>  (8) 
DL-N,N-Bis(2-hydroxyethyl)alanine

>  <logK_Dy_z=3.0_T=20_I=0.1>  (8) 
5.18

$$$$

     RDKit          2D

 28 29  0  0  0  0  0  0  0  0999 V2000
    5.2500   -9.0933    0.0000 O   0  0  0  0  0  0  0  0  0  0  0  0
    3.7500   -9.0933    0.0000 C   0  0  0  0  0  0  0  0  0  0  0  0
    3.0000  -10.3923    0.0000 O   0  0  0  0  0  0  0  0  0  0  0  0
    3.0000   -7.7942    0.0000 C   0  0  0  0  0  0  0  0  0  0  0  0
    1.5000   -7.7942    0.0000 N   0  0  0  0  0  0  0  0  0  0  0  0
    0.7500   -6.4952    0.0000 C   0  0  0  0  0  0  0  0  0  0  0  0
    1.5000   -5.1962    0.0000 C   0  0  0  0  0  0  0  0  0  0  0  0
    0.7500   -3.8971    0.0000 N   0  0  0  0  0  0  0  0  0  0  0  0
   -0.7500   -3.8971    0.0000 C   0  0  0  0  0  0  0  0  0  0  0  0
   -1.5000   -5.1962    0.0000 C   0  0  0  0  0  0  0  0  0  0  0  0
   -3.0000   -5.1962    0.0000 O   0  0  0  0  0  0  0  0  0  0  0  0
   -0.7500   -6.4952    0.0000 O   0  0  0  0  0  0  0  0  0  0  0  0
    1.5000   -2.5981    0.0000 C   0  0  0  0  0  0  0  0  0  0  0  0
    0.7500   -1.2990    0.0000 C   0  0  0  0  0  0  0  0  0  0  0  0
    1.5000    0.0000    0.0000 C   0  0  0  0  0  0  0  0  0  0  0  0
    0.7500    1.2990    0.0000 C   0  0  0  0  0  0  0  0  0  0  0  0
   -0.7500    1.2990    0.0000 C   0  0  0  0  0  0  0  0  0  0  0  0
   -1.5000    0.0000    0.0000 C   0  0  0  0  0  0  0  0  0  0  0  0
   -0.7500   -1.2990    0.0000 C   0  0  0  0  0  0  0  0  0  0  0  0
   -1.5000   -2.5981    0.0000 O   0  0  0  0  0  0  0  0  0  0  0  0
    0.7500   -9.0933    0.0000 C   0  0  0  0  0  0  0  0  0  0  0  0
   -0.7500   -9.0933    0.0000 C   0  0  0  0  0  0  0  0  0  0  0  0
   -1.5000   -7.7942    0.0000 C   0  0  0  0  0  0  0  0  0  0  0  0
   -3.0000   -7.7942    0.0000 C   0  0  0  0  0  0  0  0  0  0  0  0
   -3.7500   -9.0933    0.0000 C   0  0  0  0  0  0  0  0  0  0  0  0
   -3.0000  -10.3923    0.0000 C   0  0  0  0  0  0  0  0  0  0  0  0
   -1.5000  -10.3923    0.0000 C   0  0  0  0  0  0  0  0  0  0  0  0
   -0.7500  -11.6913    0.0000 O   0  0  0  0  0  0  0  0  0  0  0  0
  1  2  1  0
  2  3  2  0
  2  4  1  0
  4  5  1  0
  5  6  1  0
  6  7  1  0
  7  8  1  0
  8  9  1  0
  9 10  1  0
 10 11  1  0
 10 12  2  0
  8 13  1  0
 13 14  1  0
 14 15  2  0
 15 16  1  0
 16 17  2  0
 17 18  1  0
 18 19  2  0
 19 20  1  0
  5 21  1  0
 21 22  1  0
 22 23  2  0
 23 24  1  0
 24 25  2  0
 25 26  1  0
 26 27  2  0
 27 28  1  0
 19 14  1  0
 27 22  1  0
M  END
>  <Name>  (9) 
N,N'-Bis(2-hydroxybenzyl)ethylenedinitrilodiacetic_acid_(HBED)

>  <logK_Dy_z=3.0_T=20_I=0.1>  (9) 
19.9

$$$$

     RDKit          2D

 29 29  0  0  0  0  0  0  0  0999 V2000
    5.1073    0.0000    0.0000 O   0  0  0  0  0  0  0  0  0  0  0  0
    3.6073    0.0000    0.0000 C   0  0  0  0  0  0  0  0  0  0  0  0
    3.2954    1.4672    0.0000 C   0  0  0  0  0  0  0  0  0  0  0  0
    2.4138    2.6807    0.0000 N   0  0  0  0  0  0  0  0  0  0  0  0
    1.1147    3.4307    0.0000 C   0  0  0  0  0  0  0  0  0  0  0  0
   -0.3771    3.5875    0.0000 C   0  0  0  0  0  0  0  0  0  0  0  0
   -1.8037    3.1240    0.0000 N   0  0  0  0  0  0  0  0  0  0  0  0
   -2.9184    2.1203    0.0000 C   0  0  0  0  0  0  0  0  0  0  0  0
   -3.5285    0.7500    0.0000 C   0  0  0  0  0  0  0  0  0  0  0  0
   -3.5285   -0.7500    0.0000 N   0  0  0  0  0  0  0  0  0  0  0  0
   -2.9184   -2.1203    0.0000 C   0  0  0  0  0  0  0  0  0  0  0  0
   -1.8037   -3.1240    0.0000 C   0  0  0  0  0  0  0  0  0  0  0  0
   -0.3771   -3.5875    0.0000 N   0  0  0  0  0  0  0  0  0  0  0  0
    1.1147   -3.4307    0.0000 C   0  0  0  0  0  0  0  0  0  0  0  0
    2.4138   -2.6807    0.0000 C   0  0  0  0  0  0  0  0  0  0  0  0
    3.2954   -1.4672    0.0000 N   0  0  0  0  0  0  0  0  0  0  0  0
   -2.5537   -4.4231    0.0000 O   0  0  0  0  0  0  0  0  0  0  0  0
   -4.9957   -1.0619    0.0000 C   0  0  0  0  0  0  0  0  0  0  0  0
   -5.9994    0.0528    0.0000 C   0  0  0  0  0  0  0  0  0  0  0  0
   -5.5359    1.4794    0.0000 O   0  0  0  0  0  0  0  0  0  0  0  0
   -7.4666   -0.2590    0.0000 O   0  0  0  0  0  0  0  0  0  0  0  0
   -2.5537    4.4231    0.0000 C   0  0  0  0  0  0  0  0  0  0  0  0
   -1.8037    5.7221    0.0000 C   0  0  0  0  0  0  0  0  0  0  0  0
   -0.3037    5.7221    0.0000 O   0  0  0  0  0  0  0  0  0  0  0  0
   -2.5537    7.0211    0.0000 O   0  0  0  0  0  0  0  0  0  0  0  0
    3.4175    3.7955    0.0000 C   0  0  0  0  0  0  0  0  0  0  0  0
    4.8847    3.4836    0.0000 C   0  0  0  0  0  0  0  0  0  0  0  0
    5.3482    2.0570    0.0000 O   0  0  0  0  0  0  0  0  0  0  0  0
    5.8884    4.5983    0.0000 O   0  0  0  0  0  0  0  0  0  0  0  0
  1  2  2  0
  2  3  1  0
  3  4  1  0
  4  5  1  0
  5  6  1  0
  6  7  1  0
  7  8  1  0
  8  9  1  0
  9 10  1  0
 10 11  1  0
 11 12  1  0
 12 13  1  0
 13 14  1  0
 14 15  1  0
 15 16  1  0
 12 17  2  0
 10 18  1  0
 18 19  1  0
 19 20  2  0
 19 21  1  0
  7 22  1  0
 22 23  1  0
 23 24  2  0
 23 25  1  0
  4 26  1  0
 26 27  1  0
 27 28  2  0
 27 29  1  0
 16  2  1  0
M  END
>  <Name>  (10) 
9,14-Dioxo-1,4,7,10,13-pentaazacyclopentadecane-1,4,7-triacetic_acid

>  <logK_Dy_z=3.0_T=25_I=0.1>  (10) 
11.4

$$$$

     RDKit          2D

 35 35  0  0  0  0  0  0  0  0999 V2000
    6.5321    0.0000    0.0000 O   0  0  0  0  0  0  0  0  0  0  0  0
    5.0321    0.0000    0.0000 C   0  0  0  0  0  0  0  0  0  0  0  0
    4.8086    1.4832    0.0000 C   0  0  0  0  0  0  0  0  0  0  0  0
    4.1577    2.8347    0.0000 N   0  0  0  0  0  0  0  0  0  0  0  0
    3.1375    3.9343    0.0000 C   0  0  0  0  0  0  0  0  0  0  0  0
    1.8384    4.6843    0.0000 C   0  0  0  0  0  0  0  0  0  0  0  0
    0.3761    5.0181    0.0000 N   0  0  0  0  0  0  0  0  0  0  0  0
   -1.1198    4.9060    0.0000 C   0  0  0  0  0  0  0  0  0  0  0  0
   -2.5161    4.3580    0.0000 C   0  0  0  0  0  0  0  0  0  0  0  0
   -3.6888    3.4227    0.0000 N   0  0  0  0  0  0  0  0  0  0  0  0
   -4.5338    2.1834    0.0000 C   0  0  0  0  0  0  0  0  0  0  0  0
   -4.9759    0.7500    0.0000 C   0  0  0  0  0  0  0  0  0  0  0  0
   -4.9759   -0.7500    0.0000 N   0  0  0  0  0  0  0  0  0  0  0  0
   -4.5338   -2.1834    0.0000 C   0  0  0  0  0  0  0  0  0  0  0  0
   -3.6888   -3.4227    0.0000 C   0  0  0  0  0  0  0  0  0  0  0  0
   -2.5161   -4.3580    0.0000 O   0  0  0  0  0  0  0  0  0  0  0  0
   -1.1198   -4.9060    0.0000 C   0  0  0  0  0  0  0  0  0  0  0  0
    0.3761   -5.0181    0.0000 C   0  0  0  0  0  0  0  0  0  0  0  0
    1.8384   -4.6843    0.0000 O   0  0  0  0  0  0  0  0  0  0  0  0
    3.1375   -3.9343    0.0000 C   0  0  0  0  0  0  0  0  0  0  0  0
    4.1577   -2.8347    0.0000 C   0  0  0  0  0  0  0  0  0  0  0  0
    4.8086   -1.4832    0.0000 N   0  0  0  0  0  0  0  0  0  0  0  0
   -6.4592    0.9736    0.0000 O   0  0  0  0  0  0  0  0  0  0  0  0
   -4.7884    4.4430    0.0000 C   0  0  0  0  0  0  0  0  0  0  0  0
   -4.4546    5.9054    0.0000 C   0  0  0  0  0  0  0  0  0  0  0  0
   -3.0212    6.3475    0.0000 O   0  0  0  0  0  0  0  0  0  0  0  0
   -5.5542    6.9256    0.0000 O   0  0  0  0  0  0  0  0  0  0  0  0
    0.4881    6.5139    0.0000 C   0  0  0  0  0  0  0  0  0  0  0  0
    1.8396    7.1647    0.0000 C   0  0  0  0  0  0  0  0  0  0  0  0
    3.0790    6.3197    0.0000 O   0  0  0  0  0  0  0  0  0  0  0  0
    1.9517    8.6605    0.0000 O   0  0  0  0  0  0  0  0  0  0  0  0
    5.3971    3.6797    0.0000 C   0  0  0  0  0  0  0  0  0  0  0  0
    5.2850    5.1755    0.0000 C   0  0  0  0  0  0  0  0  0  0  0  0
    3.9336    5.8263    0.0000 O   0  0  0  0  0  0  0  0  0  0  0  0
    6.5244    6.0205    0.0000 O   0  0  0  0  0  0  0  0  0  0  0  0
  1  2  2  0
  2  3  1  0
  3  4  1  0
  4  5  1  0
  5  6  1  0
  6  7  1  0
  7  8  1  0
  8  9  1  0
  9 10  1  0
 10 11  1  0
 11 12  1  0
 12 13  1  0
 13 14  1  0
 14 15  1  0
 15 16  1  0
 16 17  1  0
 17 18  1  0
 18 19  1  0
 19 20  1  0
 20 21  1  0
 21 22  1  0
 12 23  2  0
 10 24  1  0
 24 25  1  0
 25 26  2  0
 25 27  1  0
  7 28  1  0
 28 29  1  0
 29 30  2  0
 29 31  1  0
  4 32  1  0
 32 33  1  0
 33 34  2  0
 33 35  1  0
 22  2  1  0
M  END
>  <Name>  (11) 
9,20-Dioxo-13,16-dioxa-1,4,7,10,19-pentaazacycloheneicosane-1,4,7-triacetic_acid

>  <logK_Dy_z=3.0_T=25_I=0.1>  (11) 
17.2

$$$$

     RDKit          2D

 29 29  0  0  0  0  0  0  0  0999 V2000
    5.1073    0.0000    0.0000 O   0  0  0  0  0  0  0  0  0  0  0  0
    3.6073    0.0000    0.0000 C   0  0  0  0  0  0  0  0  0  0  0  0
    3.2954    1.4672    0.0000 C   0  0  0  0  0  0  0  0  0  0  0  0
    2.4138    2.6807    0.0000 N   0  0  0  0  0  0  0  0  0  0  0  0
    1.1147    3.4307    0.0000 C   0  0  0  0  0  0  0  0  0  0  0  0
   -0.3771    3.5875    0.0000 C   0  0  0  0  0  0  0  0  0  0  0  0
   -1.8037    3.1240    0.0000 N   0  0  0  0  0  0  0  0  0  0  0  0
   -2.9184    2.1203    0.0000 C   0  0  0  0  0  0  0  0  0  0  0  0
   -3.5285    0.7500    0.0000 C   0  0  0  0  0  0  0  0  0  0  0  0
   -3.5285   -0.7500    0.0000 N   0  0  0  0  0  0  0  0  0  0  0  0
   -2.9184   -2.1203    0.0000 C   0  0  0  0  0  0  0  0  0  0  0  0
   -1.8037   -3.1240    0.0000 C   0  0  0  0  0  0  0  0  0  0  0  0
   -0.3771   -3.5875    0.0000 N   0  0  0  0  0  0  0  0  0  0  0  0
    1.1147   -3.4307    0.0000 C   0  0  0  0  0  0  0  0  0  0  0  0
    2.4138   -2.6807    0.0000 C   0  0  0  0  0  0  0  0  0  0  0  0
    3.2954   -1.4672    0.0000 N   0  0  0  0  0  0  0  0  0  0  0  0
   -0.5339   -5.0793    0.0000 C   0  0  0  0  0  0  0  0  0  0  0  0
   -1.9042   -5.6894    0.0000 C   0  0  0  0  0  0  0  0  0  0  0  0
   -3.1177   -4.8077    0.0000 O   0  0  0  0  0  0  0  0  0  0  0  0
   -2.0610   -7.1812    0.0000 O   0  0  0  0  0  0  0  0  0  0  0  0
   -4.9957    1.0619    0.0000 O   0  0  0  0  0  0  0  0  0  0  0  0
   -2.5537    4.4231    0.0000 C   0  0  0  0  0  0  0  0  0  0  0  0
   -1.8037    5.7221    0.0000 C   0  0  0  0  0  0  0  0  0  0  0  0
   -0.3037    5.7221    0.0000 O   0  0  0  0  0  0  0  0  0  0  0  0
   -2.5537    7.0211    0.0000 O   0  0  0  0  0  0  0  0  0  0  0  0
    3.4175    3.7955    0.0000 C   0  0  0  0  0  0  0  0  0  0  0  0
    4.8847    3.4836    0.0000 C   0  0  0  0  0  0  0  0  0  0  0  0
    5.3482    2.0570    0.0000 O   0  0  0  0  0  0  0  0  0  0  0  0
    5.8884    4.5983    0.0000 O   0  0  0  0  0  0  0  0  0  0  0  0
  1  2  2  0
  2  3  1  0
  3  4  1  0
  4  5  1  0
  5  6  1  0
  6  7  1  0
  7  8  1  0
  8  9  1  0
  9 10  1  0
 10 11  1  0
 11 12  1  0
 12 13  1  0
 13 14  1  0
 14 15  1  0
 15 16  1  0
 13 17  1  0
 17 18  1  0
 18 19  2  0
 18 20  1  0
  9 21  2  0
  7 22  1  0
 22 23  1  0
 23 24  2  0
 23 25  1  0
  4 26  1  0
 26 27  1  0
 27 28  2  0
 27 29  1  0
 16  2  1  0
M  END
>  <Name>  (12) 
6,14-Dioxo-1,4,7,10,13-pentaazacyclopentadecane-1,4,10-triacetic_acid

>  <logK_Dy_z=3.0_T=25_I=0.1>  (12) 
15.2

$$$$

     RDKit          2D

 28 28  0  0  0  0  0  0  0  0999 V2000
    6.6478   -1.2990    0.0000 O   0  0  0  0  0  0  0  0  0  0  0  0
    5.1478   -1.2990    0.0000 C   0  0  0  0  0  0  0  0  0  0  0  0
    4.3978    0.0000    0.0000 C   0  0  0  0  0  0  0  0  0  0  0  0
    2.8978    0.0000    0.0000 N   0  0  0  0  0  0  0  0  0  0  0  0
    2.5095   -1.4489    0.0000 C   0  0  0  0  0  0  0  0  0  0  0  0
    1.4489   -2.5095    0.0000 C   0  0  0  0  0  0  0  0  0  0  0  0
   -0.0000   -2.8978    0.0000 N   0  0  0  0  0  0  0  0  0  0  0  0
   -0.0000   -4.3978    0.0000 C   0  0  0  0  0  0  0  0  0  0  0  0
   -1.2990   -5.1478    0.0000 C   0  0  0  0  0  0  0  0  0  0  0  0
   -2.5981   -4.3978    0.0000 O   0  0  0  0  0  0  0  0  0  0  0  0
   -1.2990   -6.6478    0.0000 O   0  0  0  0  0  0  0  0  0  0  0  0
   -1.4489   -2.5095    0.0000 C   0  0  0  0  0  0  0  0  0  0  0  0
   -2.5095   -1.4489    0.0000 C   0  0  0  0  0  0  0  0  0  0  0  0
   -2.8978    0.0000    0.0000 N   0  0  0  0  0  0  0  0  0  0  0  0
   -4.3978    0.0000    0.0000 C   0  0  0  0  0  0  0  0  0  0  0  0
   -5.1478    1.2990    0.0000 C   0  0  0  0  0  0  0  0  0  0  0  0
   -4.3978    2.5981    0.0000 O   0  0  0  0  0  0  0  0  0  0  0  0
   -6.6478    1.2990    0.0000 O   0  0  0  0  0  0  0  0  0  0  0  0
   -2.5095    1.4489    0.0000 C   0  0  0  0  0  0  0  0  0  0  0  0
   -1.4489    2.5095    0.0000 C   0  0  0  0  0  0  0  0  0  0  0  0
    0.0000    2.8978    0.0000 N   0  0  0  0  0  0  0  0  0  0  0  0
    0.0000    4.3978    0.0000 C   0  0  0  0  0  0  0  0  0  0  0  0
    1.2990    5.1478    0.0000 C   0  0  0  0  0  0  0  0  0  0  0  0
    2.5981    4.3978    0.0000 O   0  0  0  0  0  0  0  0  0  0  0  0
    1.2990    6.6478    0.0000 O   0  0  0  0  0  0  0  0  0  0  0  0
    1.4489    2.5095    0.0000 C   0  0  0  0  0  0  0  0  0  0  0  0
    2.5095    1.4489    0.0000 C   0  0  0  0  0  0  0  0  0  0  0  0
    4.3978   -2.5981    0.0000 O   0  0  0  0  0  0  0  0  0  0  0  0
  1  2  1  0
  2  3  1  0
  3  4  1  0
  4  5  1  0
  5  6  1  0
  6  7  1  0
  7  8  1  0
  8  9  1  0
  9 10  2  0
  9 11  1  0
  7 12  1  0
 12 13  1  0
 13 14  1  0
 14 15  1  0
 15 16  1  0
 16 17  2  0
 16 18  1  0
 14 19  1  0
 19 20  1  0
 20 21  1  0
 21 22  1  0
 22 23  1  0
 23 24  2  0
 23 25  1  0
 21 26  1  0
 26 27  1  0
  2 28  2  0
 27  4  1  0
M  END
>  <Name>  (13) 
1,4,7,10-Tetraazacyclododecane-N,N',N'',N'''-tetraacetic_acid_(DOTA)

>  <logK_Dy_z=3.0_T=25_I=0.1>  (13) 
24.2

$$$$

     RDKit          2D

  9  8  0  0  0  0  0  0  0  0999 V2000
    1.2990    0.7500    0.0000 C   0  0  0  0  0  0  0  0  0  0  0  0
    0.0000    0.0000    0.0000 C   0  0  0  0  0  0  0  0  0  0  0  0
   -1.2990    0.7500    0.0000 N   0  0  0  0  0  0  0  0  0  0  0  0
   -2.5981    0.0000    0.0000 C   0  0  0  0  0  0  0  0  0  0  0  0
   -3.8971    0.7500    0.0000 C   0  0  0  0  0  0  0  0  0  0  0  0
   -5.1962    0.0000    0.0000 O   0  0  0  0  0  0  0  0  0  0  0  0
   -3.8971    2.2500    0.0000 O   0  0  0  0  0  0  0  0  0  0  0  0
    2.5981   -0.0000    0.0000 O   0  0  0  0  0  0  0  0  0  0  0  0
    1.2990    2.2500    0.0000 O   0  0  0  0  0  0  0  0  0  0  0  0
  1  2  1  0
  2  3  1  0
  3  4  1  0
  4  5  1  0
  5  6  1  0
  5  7  2  0
  1  8  1  0
  1  9  2  0
M  END
>  <Name>  (14) 
Iminodiacetic_acid_(IDA)

>  <logK_Dy_z=3.0_T=25_I=0.1>  (14) 
6.88

$$$$

     RDKit          2D

 16 16  0  0  0  0  0  0  0  0999 V2000
    5.2500    1.2990    0.0000 O   0  0  0  0  0  0  0  0  0  0  0  0
    6.0000    0.0000    0.0000 C   0  0  0  0  0  0  0  0  0  0  0  0
    5.2500   -1.2990    0.0000 C   0  0  0  0  0  0  0  0  0  0  0  0
    3.7500   -1.2990    0.0000 N   0  0  0  0  0  0  0  0  0  0  0  0
    3.0000   -2.5981    0.0000 C   0  0  0  0  0  0  0  0  0  0  0  0
    3.7500   -3.8971    0.0000 C   0  0  0  0  0  0  0  0  0  0  0  0
    5.2500   -3.8971    0.0000 O   0  0  0  0  0  0  0  0  0  0  0  0
    3.0000   -5.1962    0.0000 O   0  0  0  0  0  0  0  0  0  0  0  0
    3.0000    0.0000    0.0000 C   0  0  0  0  0  0  0  0  0  0  0  0
    1.5000    0.0000    0.0000 C   0  0  0  0  0  0  0  0  0  0  0  0
    0.7500   -1.2990    0.0000 C   0  0  0  0  0  0  0  0  0  0  0  0
   -0.7500   -1.2990    0.0000 C   0  0  0  0  0  0  0  0  0  0  0  0
   -1.5000    0.0000    0.0000 C   0  0  0  0  0  0  0  0  0  0  0  0
   -0.7500    1.2990    0.0000 C   0  0  0  0  0  0  0  0  0  0  0  0
    0.7500    1.2990    0.0000 C   0  0  0  0  0  0  0  0  0  0  0  0
    7.5000   -0.0000    0.0000 O   0  0  0  0  0  0  0  0  0  0  0  0
  1  2  1  0
  2  3  1  0
  3  4  1  0
  4  5  1  0
  5  6  1  0
  6  7  2  0
  6  8  1  0
  4  9  1  0
  9 10  1  0
 10 11  2  0
 11 12  1  0
 12 13  2  0
 13 14  1  0
 14 15  2  0
  2 16  2  0
 15 10  1  0
M  END
>  <Name>  (15) 
N-Benzyliminodiacetic_acid

>  <logK_Dy_z=3.0_T=25_I=0.1>  (15) 
6.36

$$$$

     RDKit          2D

 13 12  0  0  0  0  0  0  0  0999 V2000
    2.5981   -0.0000    0.0000 O   0  0  0  0  0  0  0  0  0  0  0  0
    1.2990    0.7500    0.0000 C   0  0  0  0  0  0  0  0  0  0  0  0
    0.0000    0.0000    0.0000 C   0  0  0  0  0  0  0  0  0  0  0  0
   -1.2990    0.7500    0.0000 N   0  0  0  0  0  0  0  0  0  0  0  0
   -2.5981    0.0000    0.0000 C   0  0  0  0  0  0  0  0  0  0  0  0
   -2.5981   -1.5000    0.0000 C   0  0  0  0  0  0  0  0  0  0  0  0
   -3.8971   -2.2500    0.0000 O   0  0  0  0  0  0  0  0  0  0  0  0
   -1.2990   -2.2500    0.0000 O   0  0  0  0  0  0  0  0  0  0  0  0
   -1.2990    2.2500    0.0000 C   0  0  0  0  0  0  0  0  0  0  0  0
   -2.5981    3.0000    0.0000 C   0  0  0  0  0  0  0  0  0  0  0  0
   -2.5981    4.5000    0.0000 O   0  0  0  0  0  0  0  0  0  0  0  0
   -3.8971    2.2500    0.0000 O   0  0  0  0  0  0  0  0  0  0  0  0
    1.2990    2.2500    0.0000 O   0  0  0  0  0  0  0  0  0  0  0  0
  1  2  1  0
  2  3  1  0
  3  4  1  0
  4  5  1  0
  5  6  1  0
  6  7  1  0
  6  8  2  0
  4  9  1  0
  9 10  1  0
 10 11  1  0
 10 12  2  0
  2 13  2  0
M  END
>  <Name>  (16) 
Nitrilotriacetic_acid_(NTA)

>  <logK_Dy_z=3.0_T=25_I=0.1>  (16) 
11.63

>  <logK_Dy_z=3.0_T=25_I=0.5>  (16) 
11.58

$$$$

     RDKit          2D

 14 13  0  0  0  0  0  0  0  0999 V2000
    2.5981   -0.0000    0.0000 C   0  0  0  0  0  0  0  0  0  0  0  0
    3.8971    0.7500    0.0000 O   0  0  0  0  0  0  0  0  0  0  0  0
    1.2990    0.7500    0.0000 C   0  0  0  0  0  0  0  0  0  0  0  0
    0.0000    0.0000    0.0000 C   0  0  0  0  0  0  0  0  0  0  0  0
    1.2990    2.2500    0.0000 N   0  0  0  0  0  0  0  0  0  0  0  0
    2.5981    3.0000    0.0000 C   0  0  0  0  0  0  0  0  0  0  0  0
    2.5981    4.5000    0.0000 C   0  0  0  0  0  0  0  0  0  0  0  0
    3.8971    5.2500    0.0000 O   0  0  0  0  0  0  0  0  0  0  0  0
    1.2990    5.2500    0.0000 O   0  0  0  0  0  0  0  0  0  0  0  0
   -0.0000    3.0000    0.0000 C   0  0  0  0  0  0  0  0  0  0  0  0
   -1.2990    2.2500    0.0000 C   0  0  0  0  0  0  0  0  0  0  0  0
   -2.5981    3.0000    0.0000 O   0  0  0  0  0  0  0  0  0  0  0  0
   -1.2990    0.7500    0.0000 O   0  0  0  0  0  0  0  0  0  0  0  0
    2.5981   -1.5000    0.0000 O   0  0  0  0  0  0  0  0  0  0  0  0
  1  2  1  0
  1  3  1  0
  3  4  1  0
  3  5  1  0
  5  6  1  0
  6  7  1  0
  7  8  1  0
  7  9  2  0
  5 10  1  0
 10 11  1  0
 11 12  1  0
 11 13  2  0
  1 14  2  0
M  END
>  <Name>  (17) 
DL-2-Methylnitrilotriacetic_acid

>  <logK_Dy_z=3.0_T=20_I=0.1>  (17) 
12.45

$$$$

     RDKit          2D

 15 14  0  0  0  0  0  0  0  0999 V2000
    5.1962   -0.0000    0.0000 O   0  0  0  0  0  0  0  0  0  0  0  0
    3.8971    0.7500    0.0000 C   0  0  0  0  0  0  0  0  0  0  0  0
    2.5981   -0.0000    0.0000 C   0  0  0  0  0  0  0  0  0  0  0  0
    1.2990    0.7500    0.0000 C   0  0  0  0  0  0  0  0  0  0  0  0
    1.2990    2.2500    0.0000 C   0  0  0  0  0  0  0  0  0  0  0  0
    2.5981   -1.5000    0.0000 N   0  0  0  0  0  0  0  0  0  0  0  0
    3.8971   -2.2500    0.0000 C   0  0  0  0  0  0  0  0  0  0  0  0
    3.8971   -3.7500    0.0000 C   0  0  0  0  0  0  0  0  0  0  0  0
    2.5981   -4.5000    0.0000 O   0  0  0  0  0  0  0  0  0  0  0  0
    5.1962   -4.5000    0.0000 O   0  0  0  0  0  0  0  0  0  0  0  0
    1.2990   -2.2500    0.0000 C   0  0  0  0  0  0  0  0  0  0  0  0
   -0.0000   -1.5000    0.0000 C   0  0  0  0  0  0  0  0  0  0  0  0
    0.0000    0.0000    0.0000 O   0  0  0  0  0  0  0  0  0  0  0  0
   -1.2990   -2.2500    0.0000 O   0  0  0  0  0  0  0  0  0  0  0  0
    3.8971    2.2500    0.0000 O   0  0  0  0  0  0  0  0  0  0  0  0
  1  2  1  0
  2  3  1  0
  3  4  1  0
  4  5  1  0
  3  6  1  0
  6  7  1  0
  7  8  1  0
  8  9  2  0
  8 10  1  0
  6 11  1  0
 11 12  1  0
 12 13  2  0
 12 14  1  0
  2 15  2  0
M  END
>  <Name>  (18) 
DL-2-Ethylnitrilotriacetic_acid

>  <logK_Dy_z=3.0_T=20_I=0.1>  (18) 
11.45

$$$$

     RDKit          2D

 16 15  0  0  0  0  0  0  0  0999 V2000
    2.5981   -0.0000    0.0000 C   0  0  0  0  0  0  0  0  0  0  0  0
    1.2990    0.7500    0.0000 C   0  0  0  0  0  0  0  0  0  0  0  0
    0.0000    0.0000    0.0000 C   0  0  0  0  0  0  0  0  0  0  0  0
    3.8971    0.7500    0.0000 C   0  0  0  0  0  0  0  0  0  0  0  0
    5.1962   -0.0000    0.0000 C   0  0  0  0  0  0  0  0  0  0  0  0
    5.1962   -1.5000    0.0000 O   0  0  0  0  0  0  0  0  0  0  0  0
    6.4952    0.7500    0.0000 O   0  0  0  0  0  0  0  0  0  0  0  0
    3.8971    2.2500    0.0000 N   0  0  0  0  0  0  0  0  0  0  0  0
    5.1962    3.0000    0.0000 C   0  0  0  0  0  0  0  0  0  0  0  0
    5.1962    4.5000    0.0000 C   0  0  0  0  0  0  0  0  0  0  0  0
    4.4102    5.0923    0.0000 O   0  0  0  0  0  0  0  0  0  0  0  0
    6.4952    5.2500    0.0000 O   0  0  0  0  0  0  0  0  0  0  0  0
    2.5981    3.0000    0.0000 C   0  0  0  0  0  0  0  0  0  0  0  0
    2.5981    4.5000    0.0000 C   0  0  0  0  0  0  0  0  0  0  0  0
    3.3840    5.0923    0.0000 O   0  0  0  0  0  0  0  0  0  0  0  0
    1.2990    5.2500    0.0000 O   0  0  0  0  0  0  0  0  0  0  0  0
  1  2  1  0
  2  3  1  0
  1  4  1  0
  4  5  1  0
  5  6  2  0
  5  7  1  0
  4  8  1  0
  8  9  1  0
  9 10  1  0
 10 11  2  0
 10 12  1  0
  8 13  1  0
 13 14  1  0
 14 15  2  0
 14 16  1  0
M  END
>  <Name>  (19) 
DL-2-Propylnitrilotriacetic_acid

>  <logK_Dy_z=3.0_T=20_I=0.1>  (19) 
11.23

$$$$

     RDKit          2D

 16 15  0  0  0  0  0  0  0  0999 V2000
    0.0000    0.0000    0.0000 C   0  0  0  0  0  0  0  0  0  0  0  0
    1.2990    0.7500    0.0000 C   0  0  0  0  0  0  0  0  0  0  0  0
    2.5981   -0.0000    0.0000 C   0  0  0  0  0  0  0  0  0  0  0  0
    1.2990    2.2500    0.0000 C   0  0  0  0  0  0  0  0  0  0  0  0
    2.5981    3.0000    0.0000 C   0  0  0  0  0  0  0  0  0  0  0  0
    3.8971    2.2500    0.0000 O   0  0  0  0  0  0  0  0  0  0  0  0
    2.5981    4.5000    0.0000 O   0  0  0  0  0  0  0  0  0  0  0  0
   -0.0000    3.0000    0.0000 N   0  0  0  0  0  0  0  0  0  0  0  0
   -0.0000    4.5000    0.0000 C   0  0  0  0  0  0  0  0  0  0  0  0
   -1.2990    5.2500    0.0000 C   0  0  0  0  0  0  0  0  0  0  0  0
   -2.2050    4.8655    0.0000 O   0  0  0  0  0  0  0  0  0  0  0  0
   -1.2990    6.7500    0.0000 O   0  0  0  0  0  0  0  0  0  0  0  0
   -1.2990    2.2500    0.0000 C   0  0  0  0  0  0  0  0  0  0  0  0
   -2.5981    3.0000    0.0000 C   0  0  0  0  0  0  0  0  0  0  0  0
   -3.8971    2.2500    0.0000 O   0  0  0  0  0  0  0  0  0  0  0  0
   -2.7180    3.9768    0.0000 O   0  0  0  0  0  0  0  0  0  0  0  0
  1  2  1  0
  2  3  1  0
  2  4  1  0
  4  5  1  0
  5  6  2  0
  5  7  1  0
  4  8  1  0
  8  9  1  0
  9 10  1  0
 10 11  2  0
 10 12  1  0
  8 13  1  0
 13 14  1  0
 14 15  2  0
 14 16  1  0
M  END
>  <Name>  (20) 
DL-2-(2-Propyl)nitrilotriacetic_acid

>  <logK_Dy_z=3.0_T=20_I=0.1>  (20) 
9.81

$$$$

     RDKit          2D

 19 18  0  0  0  0  0  0  0  0999 V2000
   10.3923   -0.0000    0.0000 O   0  0  0  0  0  0  0  0  0  0  0  0
    9.0933    0.7500    0.0000 C   0  0  0  0  0  0  0  0  0  0  0  0
    7.7942   -0.0000    0.0000 C   0  0  0  0  0  0  0  0  0  0  0  0
    6.4952    0.7500    0.0000 C   0  0  0  0  0  0  0  0  0  0  0  0
    5.1962   -0.0000    0.0000 C   0  0  0  0  0  0  0  0  0  0  0  0
    3.8971    0.7500    0.0000 C   0  0  0  0  0  0  0  0  0  0  0  0
    2.5981   -0.0000    0.0000 C   0  0  0  0  0  0  0  0  0  0  0  0
    1.2990    0.7500    0.0000 C   0  0  0  0  0  0  0  0  0  0  0  0
    0.0000    0.0000    0.0000 C   0  0  0  0  0  0  0  0  0  0  0  0
    7.7942   -1.5000    0.0000 N   0  0  0  0  0  0  0  0  0  0  0  0
    9.0933   -2.2500    0.0000 C   0  0  0  0  0  0  0  0  0  0  0  0
    9.0933   -3.7500    0.0000 C   0  0  0  0  0  0  0  0  0  0  0  0
    8.3073   -4.3423    0.0000 O   0  0  0  0  0  0  0  0  0  0  0  0
   10.3923   -4.5000    0.0000 O   0  0  0  0  0  0  0  0  0  0  0  0
    6.4952   -2.2500    0.0000 C   0  0  0  0  0  0  0  0  0  0  0  0
    6.4952   -3.7500    0.0000 C   0  0  0  0  0  0  0  0  0  0  0  0
    7.2812   -4.3423    0.0000 O   0  0  0  0  0  0  0  0  0  0  0  0
    5.1962   -4.5000    0.0000 O   0  0  0  0  0  0  0  0  0  0  0  0
    9.0933    2.2500    0.0000 O   0  0  0  0  0  0  0  0  0  0  0  0
  1  2  1  0
  2  3  1  0
  3  4  1  0
  4  5  1  0
  5  6  1  0
  6  7  1  0
  7  8  1  0
  8  9  1  0
  3 10  1  0
 10 11  1  0
 11 12  1  0
 12 13  2  0
 12 14  1  0
 10 15  1  0
 15 16  1  0
 16 17  2  0
 16 18  1  0
  2 19  2  0
M  END
>  <Name>  (21) 
DL-2-Hexylnitrilotriacetic_acid

>  <logK_Dy_z=3.0_T=20_I=0.1>  (21) 
11.34

$$$$

     RDKit          2D

 14 13  0  0  0  0  0  0  0  0999 V2000
    1.2990    2.2500    0.0000 O   0  0  0  0  0  0  0  0  0  0  0  0
    1.2990    0.7500    0.0000 C   0  0  0  0  0  0  0  0  0  0  0  0
    0.0000    0.0000    0.0000 C   0  0  0  0  0  0  0  0  0  0  0  0
   -1.2990    0.7500    0.0000 O   0  0  0  0  0  0  0  0  0  0  0  0
    2.5981   -0.0000    0.0000 C   0  0  0  0  0  0  0  0  0  0  0  0
    3.8971    0.7500    0.0000 N   0  0  0  0  0  0  0  0  0  0  0  0
    5.1962   -0.0000    0.0000 C   0  0  0  0  0  0  0  0  0  0  0  0
    5.1962   -1.5000    0.0000 C   0  0  0  0  0  0  0  0  0  0  0  0
    3.8971   -2.2500    0.0000 O   0  0  0  0  0  0  0  0  0  0  0  0
    6.4952   -2.2500    0.0000 O   0  0  0  0  0  0  0  0  0  0  0  0
    3.8971    2.2500    0.0000 C   0  0  0  0  0  0  0  0  0  0  0  0
    5.1962    3.0000    0.0000 C   0  0  0  0  0  0  0  0  0  0  0  0
    5.1962    4.5000    0.0000 O   0  0  0  0  0  0  0  0  0  0  0  0
    6.4952    2.2500    0.0000 O   0  0  0  0  0  0  0  0  0  0  0  0
  1  2  1  0
  2  3  1  0
  3  4  1  0
  2  5  1  0
  5  6  1  0
  6  7  1  0
  7  8  1  0
  8  9  2  0
  8 10  1  0
  6 11  1  0
 11 12  1  0
 12 13  2  0
 12 14  1  0
M  END
>  <Name>  (22) 
DL-N-(2,3-Dihydroxypropyl)iminodiacetic_acid

>  <logK_Dy_z=3.0_T=20_I=0.1>  (22) 
8.82

$$$$

     RDKit          2D

 13 12  0  0  0  0  0  0  0  0999 V2000
    1.2990    0.7500    0.0000 O   0  0  0  0  0  0  0  0  0  0  0  0
    0.0000    0.0000    0.0000 C   0  0  0  0  0  0  0  0  0  0  0  0
    2.5981   -0.0000    0.0000 C   0  0  0  0  0  0  0  0  0  0  0  0
    3.8971    0.7500    0.0000 C   0  0  0  0  0  0  0  0  0  0  0  0
    5.1962   -0.0000    0.0000 N   0  0  0  0  0  0  0  0  0  0  0  0
    6.4952    0.7500    0.0000 C   0  0  0  0  0  0  0  0  0  0  0  0
    7.7942   -0.0000    0.0000 C   0  0  0  0  0  0  0  0  0  0  0  0
    7.7942   -1.5000    0.0000 O   0  0  0  0  0  0  0  0  0  0  0  0
    9.0933    0.7500    0.0000 O   0  0  0  0  0  0  0  0  0  0  0  0
    5.1962   -1.5000    0.0000 C   0  0  0  0  0  0  0  0  0  0  0  0
    3.8971   -2.2500    0.0000 C   0  0  0  0  0  0  0  0  0  0  0  0
    2.5981   -1.5000    0.0000 O   0  0  0  0  0  0  0  0  0  0  0  0
    3.8971   -3.7500    0.0000 O   0  0  0  0  0  0  0  0  0  0  0  0
  1  2  1  0
  1  3  1  0
  3  4  1  0
  4  5  1  0
  5  6  1  0
  6  7  1  0
  7  8  2  0
  7  9  1  0
  5 10  1  0
 10 11  1  0
 11 12  2  0
 11 13  1  0
M  END
>  <Name>  (23) 
N-(2-Methoxyethyl)iminodiacetic_acid

>  <logK_Dy_z=3.0_T=25_I=0.1>  (23) 
8.06

$$$$

     RDKit          2D

 13 12  0  0  0  0  0  0  0  0999 V2000
    1.2990    0.7500    0.0000 S   0  0  0  0  0  0  0  0  0  0  0  0
    0.0000    0.0000    0.0000 C   0  0  0  0  0  0  0  0  0  0  0  0
    2.5981   -0.0000    0.0000 C   0  0  0  0  0  0  0  0  0  0  0  0
    3.8971    0.7500    0.0000 C   0  0  0  0  0  0  0  0  0  0  0  0
    5.1962   -0.0000    0.0000 N   0  0  0  0  0  0  0  0  0  0  0  0
    6.4952    0.7500    0.0000 C   0  0  0  0  0  0  0  0  0  0  0  0
    7.7942   -0.0000    0.0000 C   0  0  0  0  0  0  0  0  0  0  0  0
    7.7942   -1.5000    0.0000 O   0  0  0  0  0  0  0  0  0  0  0  0
    9.0933    0.7500    0.0000 O   0  0  0  0  0  0  0  0  0  0  0  0
    5.1962   -1.5000    0.0000 C   0  0  0  0  0  0  0  0  0  0  0  0
    3.8971   -2.2500    0.0000 C   0  0  0  0  0  0  0  0  0  0  0  0
    2.5981   -1.5000    0.0000 O   0  0  0  0  0  0  0  0  0  0  0  0
    3.8971   -3.7500    0.0000 O   0  0  0  0  0  0  0  0  0  0  0  0
  1  2  1  0
  1  3  1  0
  3  4  1  0
  4  5  1  0
  5  6  1  0
  6  7  1  0
  7  8  2  0
  7  9  1  0
  5 10  1  0
 10 11  1  0
 11 12  2  0
 11 13  1  0
M  END
>  <Name>  (24) 
N-[2-(Methylthio)ethyl]iminodiacetic_acid

>  <logK_Dy_z=3.0_T=25_I=0.1>  (24) 
6.41

$$$$

     RDKit          2D

 19 18  0  0  0  0  0  0  0  0999 V2000
   -1.2990    0.7500    0.0000 O   0  0  0  0  0  0  0  0  0  0  0  0
    0.0000    0.0000    0.0000 C   0  0  0  0  0  0  0  0  0  0  0  0
    1.2990    0.7500    0.0000 C   0  0  0  0  0  0  0  0  0  0  0  0
    2.5981   -0.0000    0.0000 N   0  0  0  0  0  0  0  0  0  0  0  0
    3.8971    0.7500    0.0000 C   0  0  0  0  0  0  0  0  0  0  0  0
    5.1962   -0.0000    0.0000 C   0  0  0  0  0  0  0  0  0  0  0  0
    6.4952    0.7500    0.0000 N   0  0  0  0  0  0  0  0  0  0  0  0
    7.7942   -0.0000    0.0000 C   0  0  0  0  0  0  0  0  0  0  0  0
    9.0933    0.7500    0.0000 C   0  0  0  0  0  0  0  0  0  0  0  0
   10.3923   -0.0000    0.0000 O   0  0  0  0  0  0  0  0  0  0  0  0
    9.0933    2.2500    0.0000 O   0  0  0  0  0  0  0  0  0  0  0  0
    6.4952    2.2500    0.0000 C   0  0  0  0  0  0  0  0  0  0  0  0
    5.1962    3.0000    0.0000 C   0  0  0  0  0  0  0  0  0  0  0  0
    5.1962    4.5000    0.0000 O   0  0  0  0  0  0  0  0  0  0  0  0
    3.8971    2.2500    0.0000 O   0  0  0  0  0  0  0  0  0  0  0  0
    2.5981   -1.5000    0.0000 C   0  0  0  0  0  0  0  0  0  0  0  0
    3.8971   -2.2500    0.0000 C   0  0  0  0  0  0  0  0  0  0  0  0
    3.8971   -3.7500    0.0000 O   0  0  0  0  0  0  0  0  0  0  0  0
    5.1962   -1.5000    0.0000 O   0  0  0  0  0  0  0  0  0  0  0  0
  1  2  1  0
  2  3  1  0
  3  4  1  0
  4  5  1  0
  5  6  1  0
  6  7  1  0
  7  8  1  0
  8  9  1  0
  9 10  1  0
  9 11  2  0
  7 12  1  0
 12 13  1  0
 13 14  1  0
 13 15  2  0
  4 16  1  0
 16 17  1  0
 17 18  1  0
 17 19  2  0
M  END
>  <Name>  (25) 
N-(2-Hydroxyethyl)ethylenedinitrilotriacetic_acid_(HEDTA)

>  <logK_Dy_z=3.0_T=25_I=0.1>  (25) 
15.26

>  <logK_Dy_z=3.0_T=25_I=0.5>  (25) 
14.97

$$$$

     RDKit          2D

 20 19  0  0  0  0  0  0  0  0999 V2000
   -1.2990    0.7500    0.0000 N   0  0  0  0  0  0  0  0  0  0  0  0
    0.0000    0.0000    0.0000 C   0  0  0  0  0  0  0  0  0  0  0  0
    1.2990    0.7500    0.0000 C   0  0  0  0  0  0  0  0  0  0  0  0
    1.2990    2.2500    0.0000 O   0  0  0  0  0  0  0  0  0  0  0  0
    2.5981   -0.0000    0.0000 O   0  0  0  0  0  0  0  0  0  0  0  0
   -1.2990    2.2500    0.0000 C   0  0  0  0  0  0  0  0  0  0  0  0
   -2.5981    3.0000    0.0000 C   0  0  0  0  0  0  0  0  0  0  0  0
   -3.8971    2.2500    0.0000 O   0  0  0  0  0  0  0  0  0  0  0  0
   -2.5981    4.5000    0.0000 O   0  0  0  0  0  0  0  0  0  0  0  0
   -2.5981    0.0000    0.0000 C   0  0  0  0  0  0  0  0  0  0  0  0
   -3.8971    0.7500    0.0000 C   0  0  0  0  0  0  0  0  0  0  0  0
   -5.1962    0.0000    0.0000 N   0  0  0  0  0  0  0  0  0  0  0  0
   -6.4952    0.7500    0.0000 C   0  0  0  0  0  0  0  0  0  0  0  0
   -7.7942    0.0000    0.0000 C   0  0  0  0  0  0  0  0  0  0  0  0
   -7.7942   -1.5000    0.0000 O   0  0  0  0  0  0  0  0  0  0  0  0
   -9.0933    0.7500    0.0000 O   0  0  0  0  0  0  0  0  0  0  0  0
   -5.1962   -1.5000    0.0000 C   0  0  0  0  0  0  0  0  0  0  0  0
   -3.8971   -2.2500    0.0000 C   0  0  0  0  0  0  0  0  0  0  0  0
   -2.5981   -1.5000    0.0000 O   0  0  0  0  0  0  0  0  0  0  0  0
   -3.8971   -3.7500    0.0000 O   0  0  0  0  0  0  0  0  0  0  0  0
  1  2  1  0
  2  3  1  0
  3  4  2  0
  3  5  1  0
  1  6  1  0
  6  7  1  0
  7  8  2  0
  7  9  1  0
  1 10  1  0
 10 11  1  0
 11 12  1  0
 12 13  1  0
 13 14  1  0
 14 15  2  0
 14 16  1  0
 12 17  1  0
 17 18  1  0
 18 19  2  0
 18 20  1  0
M  END
>  <Name>  (26) 
Ethylenedinitrilotetraacetic_acid_(EDTA)

>  <logK_Dy_z=3.0_T=25_I=0.1>  (26) 
18.3

>  <logK_Dy_z=3.0_T=25_I=0.5>  (26) 
16.79

$$$$

     RDKit          2D

 21 20  0  0  0  0  0  0  0  0999 V2000
    0.0000    0.0000    0.0000 C   0  0  0  0  0  0  0  0  0  0  0  0
    1.2990    0.7500    0.0000 C   0  0  0  0  0  0  0  0  0  0  0  0
    2.5981   -0.0000    0.0000 C   0  0  0  0  0  0  0  0  0  0  0  0
    3.8971    0.7500    0.0000 N   0  0  0  0  0  0  0  0  0  0  0  0
    5.1962   -0.0000    0.0000 C   0  0  0  0  0  0  0  0  0  0  0  0
    5.1962   -1.5000    0.0000 C   0  0  0  0  0  0  0  0  0  0  0  0
    6.4952   -2.2500    0.0000 O   0  0  0  0  0  0  0  0  0  0  0  0
    3.8971   -2.2500    0.0000 O   0  0  0  0  0  0  0  0  0  0  0  0
    3.8971    2.2500    0.0000 C   0  0  0  0  0  0  0  0  0  0  0  0
    5.1962    3.0000    0.0000 C   0  0  0  0  0  0  0  0  0  0  0  0
    5.1962    4.5000    0.0000 O   0  0  0  0  0  0  0  0  0  0  0  0
    6.4952    2.2500    0.0000 O   0  0  0  0  0  0  0  0  0  0  0  0
    1.2990    2.2500    0.0000 N   0  0  0  0  0  0  0  0  0  0  0  0
    2.5981    3.0000    0.0000 C   0  0  0  0  0  0  0  0  0  0  0  0
    2.5981    4.5000    0.0000 C   0  0  0  0  0  0  0  0  0  0  0  0
    3.8971    5.2500    0.0000 O   0  0  0  0  0  0  0  0  0  0  0  0
    1.2990    5.2500    0.0000 O   0  0  0  0  0  0  0  0  0  0  0  0
   -0.0000    3.0000    0.0000 C   0  0  0  0  0  0  0  0  0  0  0  0
   -1.2990    2.2500    0.0000 C   0  0  0  0  0  0  0  0  0  0  0  0
   -2.5981    3.0000    0.0000 O   0  0  0  0  0  0  0  0  0  0  0  0
   -1.2990    0.7500    0.0000 O   0  0  0  0  0  0  0  0  0  0  0  0
  1  2  1  0
  2  3  1  0
  3  4  1  0
  4  5  1  0
  5  6  1  0
  6  7  1  0
  6  8  2  0
  4  9  1  0
  9 10  1  0
 10 11  1  0
 10 12  2  0
  2 13  1  0
 13 14  1  0
 14 15  1  0
 15 16  1  0
 15 17  2  0
 13 18  1  0
 18 19  1  0
 19 20  1  0
 19 21  2  0
M  END
>  <Name>  (27) 
DL-(Methylethylene)dinitrilotetraacetic_acid_(PDTA)

>  <logK_Dy_z=3.0_T=20_I=0.1>  (27) 
19.06

$$$$

     RDKit          2D

 22 21  0  0  0  0  0  0  0  0999 V2000
    0.0000    0.0000    0.0000 C   0  0  0  0  0  0  0  0  0  0  0  0
    1.2990    0.7500    0.0000 C   0  0  0  0  0  0  0  0  0  0  0  0
    2.0490   -0.5490    0.0000 C   0  0  0  0  0  0  0  0  0  0  0  0
    1.2990   -1.8481    0.0000 N   0  0  0  0  0  0  0  0  0  0  0  0
   -0.2010   -1.8481    0.0000 C   0  0  0  0  0  0  0  0  0  0  0  0
   -0.9510   -3.1471    0.0000 C   0  0  0  0  0  0  0  0  0  0  0  0
   -0.2010   -4.4462    0.0000 O   0  0  0  0  0  0  0  0  0  0  0  0
   -2.4510   -3.1471    0.0000 O   0  0  0  0  0  0  0  0  0  0  0  0
    2.0490   -3.1471    0.0000 C   0  0  0  0  0  0  0  0  0  0  0  0
    3.5490   -3.1471    0.0000 C   0  0  0  0  0  0  0  0  0  0  0  0
    4.2990   -4.4462    0.0000 O   0  0  0  0  0  0  0  0  0  0  0  0
    4.2990   -1.8481    0.0000 O   0  0  0  0  0  0  0  0  0  0  0  0
    2.5981    1.5000    0.0000 C   0  0  0  0  0  0  0  0  0  0  0  0
    0.5490    2.0490    0.0000 N   0  0  0  0  0  0  0  0  0  0  0  0
    1.2990    3.3481    0.0000 C   0  0  0  0  0  0  0  0  0  0  0  0
    0.5490    4.6471    0.0000 C   0  0  0  0  0  0  0  0  0  0  0  0
   -0.9510    4.6471    0.0000 O   0  0  0  0  0  0  0  0  0  0  0  0
    1.2990    5.9462    0.0000 O   0  0  0  0  0  0  0  0  0  0  0  0
   -0.9510    2.0490    0.0000 C   0  0  0  0  0  0  0  0  0  0  0  0
   -1.7010    0.7500    0.0000 C   0  0  0  0  0  0  0  0  0  0  0  0
   -0.9510   -0.5490    0.0000 O   0  0  0  0  0  0  0  0  0  0  0  0
   -3.2010    0.7500    0.0000 O   0  0  0  0  0  0  0  0  0  0  0  0
  1  2  1  0
  2  3  1  0
  3  4  1  0
  4  5  1  0
  5  6  1  0
  6  7  2  0
  6  8  1  0
  4  9  1  0
  9 10  1  0
 10 11  2  0
 10 12  1  0
  2 13  1  0
  2 14  1  0
 14 15  1  0
 15 16  1  0
 16 17  2  0
 16 18  1  0
 14 19  1  0
 19 20  1  0
 20 21  2  0
 20 22  1  0
M  END
>  <Name>  (28) 
(1,1-Dimethylethylene)dinitrilotetraacetic_acid

>  <logK_Dy_z=3.0_T=20_I=0.1>  (28) 
17.28

$$$$

     RDKit          2D

 22 21  0  0  0  0  0  0  0  0999 V2000
    0.0000    0.0000    0.0000 C   0  0  0  0  0  0  0  0  0  0  0  0
    1.2990    0.7500    0.0000 C   0  0  0  0  0  0  0  0  0  0  0  0
    1.2990    2.2500    0.0000 N   0  0  0  0  0  0  0  0  0  0  0  0
    2.5981    3.0000    0.0000 C   0  0  0  0  0  0  0  0  0  0  0  0
    2.5981    4.5000    0.0000 C   0  0  0  0  0  0  0  0  0  0  0  0
    3.8971    5.2500    0.0000 O   0  0  0  0  0  0  0  0  0  0  0  0
    1.2990    5.2500    0.0000 O   0  0  0  0  0  0  0  0  0  0  0  0
   -0.0000    3.0000    0.0000 C   0  0  0  0  0  0  0  0  0  0  0  0
   -1.2990    2.2500    0.0000 C   0  0  0  0  0  0  0  0  0  0  0  0
   -2.5981    3.0000    0.0000 O   0  0  0  0  0  0  0  0  0  0  0  0
   -1.2990    0.7500    0.0000 O   0  0  0  0  0  0  0  0  0  0  0  0
    2.5981   -0.0000    0.0000 C   0  0  0  0  0  0  0  0  0  0  0  0
    2.5981   -1.5000    0.0000 N   0  0  0  0  0  0  0  0  0  0  0  0
    3.8971   -2.2500    0.0000 C   0  0  0  0  0  0  0  0  0  0  0  0
    5.1962   -1.5000    0.0000 C   0  0  0  0  0  0  0  0  0  0  0  0
    6.4952   -2.2500    0.0000 O   0  0  0  0  0  0  0  0  0  0  0  0
    5.1962    0.0000    0.0000 O   0  0  0  0  0  0  0  0  0  0  0  0
    1.2990   -2.2500    0.0000 C   0  0  0  0  0  0  0  0  0  0  0  0
    1.2990   -3.7500    0.0000 C   0  0  0  0  0  0  0  0  0  0  0  0
   -0.0000   -4.5000    0.0000 O   0  0  0  0  0  0  0  0  0  0  0  0
    2.5981   -4.5000    0.0000 O   0  0  0  0  0  0  0  0  0  0  0  0
    3.8971    0.7500    0.0000 C   0  0  0  0  0  0  0  0  0  0  0  0
  1  2  1  0
  2  3  1  0
  3  4  1  0
  4  5  1  0
  5  6  1  0
  5  7  2  0
  3  8  1  0
  8  9  1  0
  9 10  1  0
  9 11  2  0
  2 12  1  0
 12 13  1  0
 13 14  1  0
 14 15  1  0
 15 16  1  0
 15 17  2  0
 13 18  1  0
 18 19  1  0
 19 20  1  0
 19 21  2  0
 12 22  1  0
M  END
>  <Name>  (29) 
rac-(1,2-Dimethylethylene)dinitrilotetraacetic_acid

>  <logK_Dy_z=3.0_T=20_I=0.1>  (29) 
19.83

$$$$

     RDKit          2D

 24 24  0  0  0  0  0  0  0  0999 V2000
    3.7500   -3.8971    0.0000 O   0  0  0  0  0  0  0  0  0  0  0  0
    3.0000   -2.5981    0.0000 C   0  0  0  0  0  0  0  0  0  0  0  0
    1.5000   -2.5981    0.0000 O   0  0  0  0  0  0  0  0  0  0  0  0
    3.7500   -1.2990    0.0000 C   0  0  0  0  0  0  0  0  0  0  0  0
    3.0000    0.0000    0.0000 N   0  0  0  0  0  0  0  0  0  0  0  0
    3.7500    1.2990    0.0000 C   0  0  0  0  0  0  0  0  0  0  0  0
    5.2500    1.2990    0.0000 C   0  0  0  0  0  0  0  0  0  0  0  0
    6.0000    2.5981    0.0000 O   0  0  0  0  0  0  0  0  0  0  0  0
    6.0000    0.0000    0.0000 O   0  0  0  0  0  0  0  0  0  0  0  0
    1.5000    0.0000    0.0000 C   0  0  0  0  0  0  0  0  0  0  0  0
    0.7500   -1.2990    0.0000 C   0  0  0  0  0  0  0  0  0  0  0  0
   -0.7500   -1.2990    0.0000 C   0  0  0  0  0  0  0  0  0  0  0  0
   -1.5000    0.0000    0.0000 C   0  0  0  0  0  0  0  0  0  0  0  0
   -0.7500    1.2990    0.0000 C   0  0  0  0  0  0  0  0  0  0  0  0
    0.7500    1.2990    0.0000 C   0  0  0  0  0  0  0  0  0  0  0  0
    1.5000    2.5981    0.0000 N   0  0  0  0  0  0  0  0  0  0  0  0
    0.7500    3.8971    0.0000 C   0  0  0  0  0  0  0  0  0  0  0  0
   -0.7500    3.8971    0.0000 C   0  0  0  0  0  0  0  0  0  0  0  0
   -1.5000    5.1962    0.0000 O   0  0  0  0  0  0  0  0  0  0  0  0
   -1.5000    2.5981    0.0000 O   0  0  0  0  0  0  0  0  0  0  0  0
    3.0000    2.5981    0.0000 C   0  0  0  0  0  0  0  0  0  0  0  0
    3.7500    3.8971    0.0000 C   0  0  0  0  0  0  0  0  0  0  0  0
    5.2500    3.8971    0.0000 O   0  0  0  0  0  0  0  0  0  0  0  0
    3.0000    5.1962    0.0000 O   0  0  0  0  0  0  0  0  0  0  0  0
  1  2  1  0
  2  3  2  0
  2  4  1  0
  4  5  1  0
  5  6  1  0
  6  7  1  0
  7  8  1  0
  7  9  2  0
  5 10  1  0
 10 11  1  0
 11 12  1  0
 12 13  1  0
 13 14  1  0
 14 15  1  0
 15 16  1  0
 16 17  1  0
 17 18  1  0
 18 19  1  0
 18 20  2  0
 16 21  1  0
 21 22  1  0
 22 23  1  0
 22 24  2  0
 15 10  1  0
M  END
>  <Name>  (30) 
trans-1,2-Cyclohexylenedinitrilotetraacetic_acid_(CDTA)

>  <logK_Dy_z=3.0_T=20_I=0.1>  (30) 
20.6

>  <logK_Dy_z=3.0_T=25_I=0.5>  (30) 
19.4

>  <logK_Dy_z=3.0_T=25_I=1.0>  (30) 
19.98

$$$$

     RDKit          2D

 21 20  0  0  0  0  0  0  0  0999 V2000
    1.2990    0.7500    0.0000 C   0  0  0  0  0  0  0  0  0  0  0  0
    2.5981   -0.0000    0.0000 O   0  0  0  0  0  0  0  0  0  0  0  0
    1.2990    2.2500    0.0000 O   0  0  0  0  0  0  0  0  0  0  0  0
    0.0000    0.0000    0.0000 C   0  0  0  0  0  0  0  0  0  0  0  0
   -1.2990    0.7500    0.0000 N   0  0  0  0  0  0  0  0  0  0  0  0
   -2.5981    0.0000    0.0000 C   0  0  0  0  0  0  0  0  0  0  0  0
   -3.8971    0.7500    0.0000 C   0  0  0  0  0  0  0  0  0  0  0  0
   -5.1962    0.0000    0.0000 C   0  0  0  0  0  0  0  0  0  0  0  0
   -6.4952    0.7500    0.0000 N   0  0  0  0  0  0  0  0  0  0  0  0
   -7.7942    0.0000    0.0000 C   0  0  0  0  0  0  0  0  0  0  0  0
   -7.7942   -1.5000    0.0000 C   0  0  0  0  0  0  0  0  0  0  0  0
   -9.0933   -2.2500    0.0000 O   0  0  0  0  0  0  0  0  0  0  0  0
   -6.4952   -2.2500    0.0000 O   0  0  0  0  0  0  0  0  0  0  0  0
   -6.4952    2.2500    0.0000 C   0  0  0  0  0  0  0  0  0  0  0  0
   -7.7942    3.0000    0.0000 C   0  0  0  0  0  0  0  0  0  0  0  0
   -7.7942    4.5000    0.0000 O   0  0  0  0  0  0  0  0  0  0  0  0
   -9.0933    2.2500    0.0000 O   0  0  0  0  0  0  0  0  0  0  0  0
   -1.2990    2.2500    0.0000 C   0  0  0  0  0  0  0  0  0  0  0  0
   -2.5981    3.0000    0.0000 C   0  0  0  0  0  0  0  0  0  0  0  0
   -2.5981    4.5000    0.0000 O   0  0  0  0  0  0  0  0  0  0  0  0
   -3.8971    2.2500    0.0000 O   0  0  0  0  0  0  0  0  0  0  0  0
  1  2  1  0
  1  3  2  0
  1  4  1  0
  4  5  1  0
  5  6  1  0
  6  7  1  0
  7  8  1  0
  8  9  1  0
  9 10  1  0
 10 11  1  0
 11 12  1  0
 11 13  2  0
  9 14  1  0
 14 15  1  0
 15 16  1  0
 15 17  2  0
  5 18  1  0
 18 19  1  0
 19 20  1  0
 19 21  2  0
M  END
>  <Name>  (31) 
Trimethylenedinitrilotetraacetic_acid_(TMDTA)

>  <logK_Dy_z=3.0_T=25_I=0.1>  (31) 
14.79

>  <logK_Dy_z=3.0_T=20_I=0.1>  (31) 
14.63

$$$$

     RDKit          2D

 22 21  0  0  0  0  0  0  0  0999 V2000
    2.5981   -0.0000    0.0000 O   0  0  0  0  0  0  0  0  0  0  0  0
    1.2990    0.7500    0.0000 C   0  0  0  0  0  0  0  0  0  0  0  0
    0.0000    0.0000    0.0000 C   0  0  0  0  0  0  0  0  0  0  0  0
   -1.2990    0.7500    0.0000 N   0  0  0  0  0  0  0  0  0  0  0  0
   -1.2990    2.2500    0.0000 C   0  0  0  0  0  0  0  0  0  0  0  0
   -2.5981    3.0000    0.0000 C   0  0  0  0  0  0  0  0  0  0  0  0
   -3.8971    2.2500    0.0000 O   0  0  0  0  0  0  0  0  0  0  0  0
   -2.5981    4.5000    0.0000 O   0  0  0  0  0  0  0  0  0  0  0  0
   -2.5981    0.0000    0.0000 C   0  0  0  0  0  0  0  0  0  0  0  0
   -3.8971    0.7500    0.0000 C   0  0  0  0  0  0  0  0  0  0  0  0
   -5.1962    0.0000    0.0000 C   0  0  0  0  0  0  0  0  0  0  0  0
   -6.4952    0.7500    0.0000 C   0  0  0  0  0  0  0  0  0  0  0  0
   -7.7942    0.0000    0.0000 N   0  0  0  0  0  0  0  0  0  0  0  0
   -9.0933    0.7500    0.0000 C   0  0  0  0  0  0  0  0  0  0  0  0
  -10.3923    0.0000    0.0000 C   0  0  0  0  0  0  0  0  0  0  0  0
  -10.3923   -1.5000    0.0000 O   0  0  0  0  0  0  0  0  0  0  0  0
  -11.6913    0.7500    0.0000 O   0  0  0  0  0  0  0  0  0  0  0  0
   -7.7942   -1.5000    0.0000 C   0  0  0  0  0  0  0  0  0  0  0  0
   -6.4952   -2.2500    0.0000 C   0  0  0  0  0  0  0  0  0  0  0  0
   -5.1962   -1.5000    0.0000 O   0  0  0  0  0  0  0  0  0  0  0  0
   -6.4952   -3.7500    0.0000 O   0  0  0  0  0  0  0  0  0  0  0  0
    1.2990    2.2500    0.0000 O   0  0  0  0  0  0  0  0  0  0  0  0
  1  2  1  0
  2  3  1  0
  3  4  1  0
  4  5  1  0
  5  6  1  0
  6  7  2  0
  6  8  1  0
  4  9  1  0
  9 10  1  0
 10 11  1  0
 11 12  1  0
 12 13  1  0
 13 14  1  0
 14 15  1  0
 15 16  2  0
 15 17  1  0
 13 18  1  0
 18 19  1  0
 19 20  2  0
 19 21  1  0
  2 22  2  0
M  END
>  <Name>  (32) 
Tetramethylenedinitrilotetraacetic_acid

>  <logK_Dy_z=3.0_T=25_I=0.5>  (32) 
10.55

$$$$

     RDKit          2D

 23 22  0  0  0  0  0  0  0  0999 V2000
    2.5981   -0.0000    0.0000 O   0  0  0  0  0  0  0  0  0  0  0  0
    1.2990    0.7500    0.0000 C   0  0  0  0  0  0  0  0  0  0  0  0
    0.0000    0.0000    0.0000 C   0  0  0  0  0  0  0  0  0  0  0  0
   -1.2990    0.7500    0.0000 N   0  0  0  0  0  0  0  0  0  0  0  0
   -1.2990    2.2500    0.0000 C   0  0  0  0  0  0  0  0  0  0  0  0
   -2.5981    3.0000    0.0000 C   0  0  0  0  0  0  0  0  0  0  0  0
   -3.8971    2.2500    0.0000 O   0  0  0  0  0  0  0  0  0  0  0  0
   -2.5981    4.5000    0.0000 O   0  0  0  0  0  0  0  0  0  0  0  0
   -2.5981    0.0000    0.0000 C   0  0  0  0  0  0  0  0  0  0  0  0
   -3.8971    0.7500    0.0000 C   0  0  0  0  0  0  0  0  0  0  0  0
   -5.1962    0.0000    0.0000 C   0  0  0  0  0  0  0  0  0  0  0  0
   -6.4952    0.7500    0.0000 C   0  0  0  0  0  0  0  0  0  0  0  0
   -7.7942    0.0000    0.0000 C   0  0  0  0  0  0  0  0  0  0  0  0
   -9.0933    0.7500    0.0000 N   0  0  0  0  0  0  0  0  0  0  0  0
  -10.3923    0.0000    0.0000 C   0  0  0  0  0  0  0  0  0  0  0  0
  -11.6913    0.7500    0.0000 C   0  0  0  0  0  0  0  0  0  0  0  0
  -11.6913    2.2500    0.0000 O   0  0  0  0  0  0  0  0  0  0  0  0
  -12.9904    0.0000    0.0000 O   0  0  0  0  0  0  0  0  0  0  0  0
   -9.0933    2.2500    0.0000 C   0  0  0  0  0  0  0  0  0  0  0  0
   -7.7942    3.0000    0.0000 C   0  0  0  0  0  0  0  0  0  0  0  0
   -6.4952    2.2500    0.0000 O   0  0  0  0  0  0  0  0  0  0  0  0
   -7.7942    4.5000    0.0000 O   0  0  0  0  0  0  0  0  0  0  0  0
    1.2990    2.2500    0.0000 O   0  0  0  0  0  0  0  0  0  0  0  0
  1  2  1  0
  2  3  1  0
  3  4  1  0
  4  5  1  0
  5  6  1  0
  6  7  2  0
  6  8  1  0
  4  9  1  0
  9 10  1  0
 10 11  1  0
 11 12  1  0
 12 13  1  0
 13 14  1  0
 14 15  1  0
 15 16  1  0
 16 17  2  0
 16 18  1  0
 14 19  1  0
 19 20  1  0
 20 21  2  0
 20 22  1  0
  2 23  2  0
M  END
>  <Name>  (33) 
Pentamethylenedinitrilotetraacetic_acid

>  <logK_Dy_z=3.0_T=25_I=0.1>  (33) 
10.99

$$$$

     RDKit          2D

 24 23  0  0  0  0  0  0  0  0999 V2000
    0.0000    0.0000    0.0000 C   0  0  0  0  0  0  0  0  0  0  0  0
   -1.2990    0.7500    0.0000 C   0  0  0  0  0  0  0  0  0  0  0  0
   -2.5981    0.0000    0.0000 C   0  0  0  0  0  0  0  0  0  0  0  0
   -3.8971    0.7500    0.0000 N   0  0  0  0  0  0  0  0  0  0  0  0
   -5.1962    0.0000    0.0000 C   0  0  0  0  0  0  0  0  0  0  0  0
   -6.4952    0.7500    0.0000 C   0  0  0  0  0  0  0  0  0  0  0  0
   -7.7942    0.0000    0.0000 O   0  0  0  0  0  0  0  0  0  0  0  0
   -6.4952    2.2500    0.0000 O   0  0  0  0  0  0  0  0  0  0  0  0
   -3.8971    2.2500    0.0000 C   0  0  0  0  0  0  0  0  0  0  0  0
   -2.5981    3.0000    0.0000 C   0  0  0  0  0  0  0  0  0  0  0  0
   -1.2990    2.2500    0.0000 O   0  0  0  0  0  0  0  0  0  0  0  0
   -2.5981    4.5000    0.0000 O   0  0  0  0  0  0  0  0  0  0  0  0
    1.2990    0.7500    0.0000 C   0  0  0  0  0  0  0  0  0  0  0  0
    2.5981   -0.0000    0.0000 C   0  0  0  0  0  0  0  0  0  0  0  0
    3.8971    0.7500    0.0000 C   0  0  0  0  0  0  0  0  0  0  0  0
    5.1962   -0.0000    0.0000 N   0  0  0  0  0  0  0  0  0  0  0  0
    6.4952    0.7500    0.0000 C   0  0  0  0  0  0  0  0  0  0  0  0
    7.7942   -0.0000    0.0000 C   0  0  0  0  0  0  0  0  0  0  0  0
    9.0933    0.7500    0.0000 O   0  0  0  0  0  0  0  0  0  0  0  0
    7.7942   -1.5000    0.0000 O   0  0  0  0  0  0  0  0  0  0  0  0
    5.1962   -1.5000    0.0000 C   0  0  0  0  0  0  0  0  0  0  0  0
    3.8971   -2.2500    0.0000 C   0  0  0  0  0  0  0  0  0  0  0  0
    3.8971   -3.7500    0.0000 O   0  0  0  0  0  0  0  0  0  0  0  0
    2.5981   -1.5000    0.0000 O   0  0  0  0  0  0  0  0  0  0  0  0
  1  2  1  0
  2  3  1  0
  3  4  1  0
  4  5  1  0
  5  6  1  0
  6  7  1  0
  6  8  2  0
  4  9  1  0
  9 10  1  0
 10 11  1  0
 10 12  2  0
  1 13  1  0
 13 14  1  0
 14 15  1  0
 15 16  1  0
 16 17  1  0
 17 18  1  0
 18 19  1  0
 18 20  2  0
 16 21  1  0
 21 22  1  0
 22 23  1  0
 22 24  2  0
M  END
>  <Name>  (34) 
Hexamethylenedinitrilotetraacetic_acid

>  <logK_Dy_z=3.0_T=25_I=1.0>  (34) 
9.57

$$$$

     RDKit          2D

 23 22  0  0  0  0  0  0  0  0999 V2000
    1.2990    2.2500    0.0000 C   0  0  0  0  0  0  0  0  0  0  0  0
    1.2990    0.7500    0.0000 C   0  0  0  0  0  0  0  0  0  0  0  0
    2.5981   -0.0000    0.0000 C   0  0  0  0  0  0  0  0  0  0  0  0
    3.8971    0.7500    0.0000 C   0  0  0  0  0  0  0  0  0  0  0  0
    5.1962   -0.0000    0.0000 C   0  0  0  0  0  0  0  0  0  0  0  0
    3.8971    2.2500    0.0000 N   0  0  0  0  0  0  0  0  0  0  0  0
    2.5981    3.0000    0.0000 C   0  0  0  0  0  0  0  0  0  0  0  0
    2.5981    4.5000    0.0000 C   0  0  0  0  0  0  0  0  0  0  0  0
    3.8971    5.2500    0.0000 O   0  0  0  0  0  0  0  0  0  0  0  0
    1.2990    5.2500    0.0000 O   0  0  0  0  0  0  0  0  0  0  0  0
    5.1962    3.0000    0.0000 C   0  0  0  0  0  0  0  0  0  0  0  0
    6.4952    2.2500    0.0000 C   0  0  0  0  0  0  0  0  0  0  0  0
    6.4952    0.7500    0.0000 O   0  0  0  0  0  0  0  0  0  0  0  0
    7.7942    3.0000    0.0000 O   0  0  0  0  0  0  0  0  0  0  0  0
   -0.0000   -0.0000    0.0000 N   0  0  0  0  0  0  0  0  0  0  0  0
   -1.2990    0.7500    0.0000 C   0  0  0  0  0  0  0  0  0  0  0  0
   -1.2990    2.2500    0.0000 C   0  0  0  0  0  0  0  0  0  0  0  0
   -0.0000    3.0000    0.0000 O   0  0  0  0  0  0  0  0  0  0  0  0
   -2.5981    3.0000    0.0000 O   0  0  0  0  0  0  0  0  0  0  0  0
    0.0000   -1.5000    0.0000 C   0  0  0  0  0  0  0  0  0  0  0  0
   -1.2990   -2.2500    0.0000 C   0  0  0  0  0  0  0  0  0  0  0  0
   -2.5981   -1.5000    0.0000 O   0  0  0  0  0  0  0  0  0  0  0  0
   -1.2990   -3.7500    0.0000 O   0  0  0  0  0  0  0  0  0  0  0  0
  1  2  1  0
  2  3  1  0
  3  4  1  0
  4  5  1  0
  4  6  1  0
  6  7  1  0
  7  8  1  0
  8  9  2  0
  8 10  1  0
  6 11  1  0
 11 12  1  0
 12 13  2  0
 12 14  1  0
  2 15  1  0
 15 16  1  0
 16 17  1  0
 17 18  2  0
 17 19  1  0
 15 20  1  0
 20 21  1  0
 21 22  2  0
 21 23  1  0
M  END
>  <Name>  (35) 
rac-(1,3-Dimethyltrimethylene)dinitrilotetraacetic_acid

>  <logK_Dy_z=3.0_T=20_I=0.1>  (35) 
12.88

$$$$

     RDKit          2D

 22 21  0  0  0  0  0  0  0  0999 V2000
   -0.0000   -1.5000    0.0000 C   0  0  0  0  0  0  0  0  0  0  0  0
    1.2990   -2.2500    0.0000 O   0  0  0  0  0  0  0  0  0  0  0  0
   -1.2990   -2.2500    0.0000 O   0  0  0  0  0  0  0  0  0  0  0  0
    0.0000    0.0000    0.0000 C   0  0  0  0  0  0  0  0  0  0  0  0
   -1.2990    0.7500    0.0000 N   0  0  0  0  0  0  0  0  0  0  0  0
   -2.5981    0.0000    0.0000 C   0  0  0  0  0  0  0  0  0  0  0  0
   -3.8971    0.7500    0.0000 C   0  0  0  0  0  0  0  0  0  0  0  0
   -3.8971    2.2500    0.0000 O   0  0  0  0  0  0  0  0  0  0  0  0
   -5.1962    0.0000    0.0000 C   0  0  0  0  0  0  0  0  0  0  0  0
   -6.4952    0.7500    0.0000 N   0  0  0  0  0  0  0  0  0  0  0  0
   -7.7942    0.0000    0.0000 C   0  0  0  0  0  0  0  0  0  0  0  0
   -7.7942   -1.5000    0.0000 C   0  0  0  0  0  0  0  0  0  0  0  0
   -9.0933   -2.2500    0.0000 O   0  0  0  0  0  0  0  0  0  0  0  0
   -6.4952   -2.2500    0.0000 O   0  0  0  0  0  0  0  0  0  0  0  0
   -6.4952    2.2500    0.0000 C   0  0  0  0  0  0  0  0  0  0  0  0
   -7.7942    3.0000    0.0000 C   0  0  0  0  0  0  0  0  0  0  0  0
   -7.7942    4.5000    0.0000 O   0  0  0  0  0  0  0  0  0  0  0  0
   -9.0933    2.2500    0.0000 O   0  0  0  0  0  0  0  0  0  0  0  0
   -1.2990    2.2500    0.0000 C   0  0  0  0  0  0  0  0  0  0  0  0
    0.0000    3.0000    0.0000 C   0  0  0  0  0  0  0  0  0  0  0  0
    0.0000    4.5000    0.0000 O   0  0  0  0  0  0  0  0  0  0  0  0
    1.2990    2.2500    0.0000 O   0  0  0  0  0  0  0  0  0  0  0  0
  1  2  1  0
  1  3  2  0
  1  4  1  0
  4  5  1  0
  5  6  1  0
  6  7  1  0
  7  8  1  0
  7  9  1  0
  9 10  1  0
 10 11  1  0
 11 12  1  0
 12 13  1  0
 12 14  2  0
 10 15  1  0
 15 16  1  0
 16 17  1  0
 16 18  2  0
  5 19  1  0
 19 20  1  0
 20 21  1  0
 20 22  2  0
M  END
>  <Name>  (36) 
(2-Hydroxytrimethylene)dinitrilotetraacetic_acid

>  <logK_Dy_z=3.0_T=25_I=0.1>  (36) 
14.83

$$$$

     RDKit          2D

 25 24  0  0  0  0  0  0  0  0999 V2000
   -1.2990    0.7500    0.0000 O   0  0  0  0  0  0  0  0  0  0  0  0
    0.0000    0.0000    0.0000 C   0  0  0  0  0  0  0  0  0  0  0  0
    1.2990    0.7500    0.0000 C   0  0  0  0  0  0  0  0  0  0  0  0
    2.5981   -0.0000    0.0000 C   0  0  0  0  0  0  0  0  0  0  0  0
    3.8971    0.7500    0.0000 N   0  0  0  0  0  0  0  0  0  0  0  0
    5.1962   -0.0000    0.0000 C   0  0  0  0  0  0  0  0  0  0  0  0
    6.4952    0.7500    0.0000 C   0  0  0  0  0  0  0  0  0  0  0  0
    6.4952    2.2500    0.0000 O   0  0  0  0  0  0  0  0  0  0  0  0
    7.7942   -0.0000    0.0000 O   0  0  0  0  0  0  0  0  0  0  0  0
    3.8971    2.2500    0.0000 C   0  0  0  0  0  0  0  0  0  0  0  0
    2.5981    3.0000    0.0000 C   0  0  0  0  0  0  0  0  0  0  0  0
    2.5981    4.5000    0.0000 O   0  0  0  0  0  0  0  0  0  0  0  0
    1.2990    2.2500    0.0000 O   0  0  0  0  0  0  0  0  0  0  0  0
   -2.5981    0.0000    0.0000 C   0  0  0  0  0  0  0  0  0  0  0  0
   -3.8971    0.7500    0.0000 C   0  0  0  0  0  0  0  0  0  0  0  0
   -5.1962    0.0000    0.0000 C   0  0  0  0  0  0  0  0  0  0  0  0
   -6.4952    0.7500    0.0000 N   0  0  0  0  0  0  0  0  0  0  0  0
   -7.7942    0.0000    0.0000 C   0  0  0  0  0  0  0  0  0  0  0  0
   -9.0933    0.7500    0.0000 C   0  0  0  0  0  0  0  0  0  0  0  0
   -9.0933    2.2500    0.0000 O   0  0  0  0  0  0  0  0  0  0  0  0
  -10.3923    0.0000    0.0000 O   0  0  0  0  0  0  0  0  0  0  0  0
   -6.4952    2.2500    0.0000 C   0  0  0  0  0  0  0  0  0  0  0  0
   -5.1962    3.0000    0.0000 C   0  0  0  0  0  0  0  0  0  0  0  0
   -5.1962    4.5000    0.0000 O   0  0  0  0  0  0  0  0  0  0  0  0
   -3.8971    2.2500    0.0000 O   0  0  0  0  0  0  0  0  0  0  0  0
  1  2  1  0
  2  3  1  0
  3  4  1  0
  4  5  1  0
  5  6  1  0
  6  7  1  0
  7  8  2  0
  7  9  1  0
  5 10  1  0
 10 11  1  0
 11 12  2  0
 11 13  1  0
  1 14  1  0
 14 15  1  0
 15 16  1  0
 16 17  1  0
 17 18  1  0
 18 19  1  0
 19 20  2  0
 19 21  1  0
 17 22  1  0
 22 23  1  0
 23 24  2  0
 23 25  1  0
M  END
>  <Name>  (37) 
Oxybis(trimethylenenitrilo)tetraacetic_acid

>  <logK_Dy_z=3.0_T=25_I=0.1>  (37) 
11.72

$$$$

     RDKit          2D

 26 25  0  0  0  0  0  0  0  0999 V2000
    2.5981   -0.0000    0.0000 O   0  0  0  0  0  0  0  0  0  0  0  0
    1.2990    0.7500    0.0000 C   0  0  0  0  0  0  0  0  0  0  0  0
    0.0000    0.0000    0.0000 C   0  0  0  0  0  0  0  0  0  0  0  0
   -1.2990    0.7500    0.0000 N   0  0  0  0  0  0  0  0  0  0  0  0
   -1.2990    2.2500    0.0000 C   0  0  0  0  0  0  0  0  0  0  0  0
   -2.5981    3.0000    0.0000 C   0  0  0  0  0  0  0  0  0  0  0  0
   -3.8971    2.2500    0.0000 O   0  0  0  0  0  0  0  0  0  0  0  0
   -2.5981    4.5000    0.0000 O   0  0  0  0  0  0  0  0  0  0  0  0
   -2.5981    0.0000    0.0000 C   0  0  0  0  0  0  0  0  0  0  0  0
   -3.8971    0.7500    0.0000 C   0  0  0  0  0  0  0  0  0  0  0  0
   -5.1962    0.0000    0.0000 O   0  0  0  0  0  0  0  0  0  0  0  0
   -6.4952    0.7500    0.0000 C   0  0  0  0  0  0  0  0  0  0  0  0
   -7.7942    0.0000    0.0000 C   0  0  0  0  0  0  0  0  0  0  0  0
   -9.0933    0.7500    0.0000 O   0  0  0  0  0  0  0  0  0  0  0  0
  -10.3923    0.0000    0.0000 C   0  0  0  0  0  0  0  0  0  0  0  0
  -11.6913    0.7500    0.0000 C   0  0  0  0  0  0  0  0  0  0  0  0
  -12.9904    0.0000    0.0000 N   0  0  0  0  0  0  0  0  0  0  0  0
  -14.2894    0.7500    0.0000 C   0  0  0  0  0  0  0  0  0  0  0  0
  -15.5885    0.0000    0.0000 C   0  0  0  0  0  0  0  0  0  0  0  0
  -15.5885   -1.5000    0.0000 O   0  0  0  0  0  0  0  0  0  0  0  0
  -16.8875    0.7500    0.0000 O   0  0  0  0  0  0  0  0  0  0  0  0
  -12.9904   -1.5000    0.0000 C   0  0  0  0  0  0  0  0  0  0  0  0
  -11.6913   -2.2500    0.0000 C   0  0  0  0  0  0  0  0  0  0  0  0
  -10.3923   -1.5000    0.0000 O   0  0  0  0  0  0  0  0  0  0  0  0
  -11.6913   -3.7500    0.0000 O   0  0  0  0  0  0  0  0  0  0  0  0
    1.2990    2.2500    0.0000 O   0  0  0  0  0  0  0  0  0  0  0  0
  1  2  1  0
  2  3  1  0
  3  4  1  0
  4  5  1  0
  5  6  1  0
  6  7  2  0
  6  8  1  0
  4  9  1  0
  9 10  1  0
 10 11  1  0
 11 12  1  0
 12 13  1  0
 13 14  1  0
 14 15  1  0
 15 16  1  0
 16 17  1  0
 17 18  1  0
 18 19  1  0
 19 20  2  0
 19 21  1  0
 17 22  1  0
 22 23  1  0
 23 24  2  0
 23 25  1  0
  2 26  2  0
M  END
>  <Name>  (38) 
Ethylenebis(oxyethylenenitrilo)tetraacetic_acid_(EGTA)

>  <logK_Dy_z=3.0_T=20_I=0.1>  (38) 
17.7

$$$$

     RDKit          2D

 23 22  0  0  0  0  0  0  0  0999 V2000
   -1.2990    0.7500    0.0000 S   0  0  0  0  0  0  0  0  0  0  0  0
    0.0000    0.0000    0.0000 C   0  0  0  0  0  0  0  0  0  0  0  0
    1.2990    0.7500    0.0000 C   0  0  0  0  0  0  0  0  0  0  0  0
    2.5981   -0.0000    0.0000 N   0  0  0  0  0  0  0  0  0  0  0  0
    3.8971    0.7500    0.0000 C   0  0  0  0  0  0  0  0  0  0  0  0
    5.1962   -0.0000    0.0000 C   0  0  0  0  0  0  0  0  0  0  0  0
    5.1962   -1.5000    0.0000 O   0  0  0  0  0  0  0  0  0  0  0  0
    6.4952    0.7500    0.0000 O   0  0  0  0  0  0  0  0  0  0  0  0
    2.5981   -1.5000    0.0000 C   0  0  0  0  0  0  0  0  0  0  0  0
    1.2990   -2.2500    0.0000 C   0  0  0  0  0  0  0  0  0  0  0  0
    0.0000   -1.5000    0.0000 O   0  0  0  0  0  0  0  0  0  0  0  0
    1.2990   -3.7500    0.0000 O   0  0  0  0  0  0  0  0  0  0  0  0
   -2.5981    0.0000    0.0000 C   0  0  0  0  0  0  0  0  0  0  0  0
   -3.8971    0.7500    0.0000 C   0  0  0  0  0  0  0  0  0  0  0  0
   -5.1962    0.0000    0.0000 N   0  0  0  0  0  0  0  0  0  0  0  0
   -6.4952    0.7500    0.0000 C   0  0  0  0  0  0  0  0  0  0  0  0
   -7.7942    0.0000    0.0000 C   0  0  0  0  0  0  0  0  0  0  0  0
   -7.7942   -1.5000    0.0000 O   0  0  0  0  0  0  0  0  0  0  0  0
   -9.0933    0.7500    0.0000 O   0  0  0  0  0  0  0  0  0  0  0  0
   -5.1962   -1.5000    0.0000 C   0  0  0  0  0  0  0  0  0  0  0  0
   -3.8971   -2.2500    0.0000 C   0  0  0  0  0  0  0  0  0  0  0  0
   -2.5981   -1.5000    0.0000 O   0  0  0  0  0  0  0  0  0  0  0  0
   -3.8971   -3.7500    0.0000 O   0  0  0  0  0  0  0  0  0  0  0  0
  1  2  1  0
  2  3  1  0
  3  4  1  0
  4  5  1  0
  5  6  1  0
  6  7  2  0
  6  8  1  0
  4  9  1  0
  9 10  1  0
 10 11  2  0
 10 12  1  0
  1 13  1  0
 13 14  1  0
 14 15  1  0
 15 16  1  0
 16 17  1  0
 17 18  2  0
 17 19  1  0
 15 20  1  0
 20 21  1  0
 21 22  2  0
 21 23  1  0
M  END
>  <Name>  (39) 
Thiobis(ethylenenitrilo)tetraacetic_acid_(TEDTA)

>  <logK_Dy_z=3.0_T=25_I=0.1>  (39) 
14.83

$$$$

     RDKit          2D

 25 24  0  0  0  0  0  0  0  0999 V2000
    1.2990    0.7500    0.0000 C   0  0  0  0  0  0  0  0  0  0  0  0
    0.0000    0.0000    0.0000 C   0  0  0  0  0  0  0  0  0  0  0  0
    2.5981   -0.0000    0.0000 N   0  0  0  0  0  0  0  0  0  0  0  0
    3.8971    0.7500    0.0000 C   0  0  0  0  0  0  0  0  0  0  0  0
    5.1962   -0.0000    0.0000 C   0  0  0  0  0  0  0  0  0  0  0  0
    6.4952    0.7500    0.0000 N   0  0  0  0  0  0  0  0  0  0  0  0
    7.7942   -0.0000    0.0000 C   0  0  0  0  0  0  0  0  0  0  0  0
    9.0933    0.7500    0.0000 C   0  0  0  0  0  0  0  0  0  0  0  0
    9.0933    2.2500    0.0000 O   0  0  0  0  0  0  0  0  0  0  0  0
   10.3923   -0.0000    0.0000 O   0  0  0  0  0  0  0  0  0  0  0  0
    6.4952    2.2500    0.0000 C   0  0  0  0  0  0  0  0  0  0  0  0
    5.1962    3.0000    0.0000 C   0  0  0  0  0  0  0  0  0  0  0  0
    3.8971    2.2500    0.0000 O   0  0  0  0  0  0  0  0  0  0  0  0
    5.1962    4.5000    0.0000 O   0  0  0  0  0  0  0  0  0  0  0  0
    2.5981   -1.5000    0.0000 C   0  0  0  0  0  0  0  0  0  0  0  0
    3.8971   -2.2500    0.0000 C   0  0  0  0  0  0  0  0  0  0  0  0
    3.8971   -3.7500    0.0000 N   0  0  0  0  0  0  0  0  0  0  0  0
    5.1962   -4.5000    0.0000 C   0  0  0  0  0  0  0  0  0  0  0  0
    5.1962   -6.0000    0.0000 C   0  0  0  0  0  0  0  0  0  0  0  0
    3.8971   -6.7500    0.0000 O   0  0  0  0  0  0  0  0  0  0  0  0
    6.4952   -6.7500    0.0000 O   0  0  0  0  0  0  0  0  0  0  0  0
    2.5981   -4.5000    0.0000 C   0  0  0  0  0  0  0  0  0  0  0  0
    1.2990   -3.7500    0.0000 C   0  0  0  0  0  0  0  0  0  0  0  0
    1.2990   -2.2500    0.0000 O   0  0  0  0  0  0  0  0  0  0  0  0
    0.0000   -4.5000    0.0000 O   0  0  0  0  0  0  0  0  0  0  0  0
  1  2  1  0
  1  3  1  0
  3  4  1  0
  4  5  1  0
  5  6  1  0
  6  7  1  0
  7  8  1  0
  8  9  2  0
  8 10  1  0
  6 11  1  0
 11 12  1  0
 12 13  2  0
 12 14  1  0
  3 15  1  0
 15 16  1  0
 16 17  1  0
 17 18  1  0
 18 19  1  0
 19 20  2  0
 19 21  1  0
 17 22  1  0
 22 23  1  0
 23 24  2  0
 23 25  1  0
M  END
>  <Name>  (40) 
N-Ethyliminobis(ethylenenitrilo)tetraacetic_acid

>  <logK_Dy_z=3.0_T=25_I=0.1>  (40) 
17.84

$$$$

     RDKit          2D

 29 29  0  0  0  0  0  0  0  0999 V2000
    7.5000   -5.1962    0.0000 O   0  0  0  0  0  0  0  0  0  0  0  0
    8.2500   -3.8971    0.0000 C   0  0  0  0  0  0  0  0  0  0  0  0
    7.5000   -2.5981    0.0000 C   0  0  0  0  0  0  0  0  0  0  0  0
    6.0000   -2.5981    0.0000 N   0  0  0  0  0  0  0  0  0  0  0  0
    5.2500   -3.8971    0.0000 C   0  0  0  0  0  0  0  0  0  0  0  0
    3.7500   -3.8971    0.0000 C   0  0  0  0  0  0  0  0  0  0  0  0
    3.0000   -2.5981    0.0000 O   0  0  0  0  0  0  0  0  0  0  0  0
    3.0000   -5.1962    0.0000 O   0  0  0  0  0  0  0  0  0  0  0  0
    5.2500   -1.2990    0.0000 C   0  0  0  0  0  0  0  0  0  0  0  0
    3.7500   -1.2990    0.0000 C   0  0  0  0  0  0  0  0  0  0  0  0
    3.0000    0.0000    0.0000 N   0  0  0  0  0  0  0  0  0  0  0  0
    1.5000    0.0000    0.0000 C   0  0  0  0  0  0  0  0  0  0  0  0
    0.7500   -1.2990    0.0000 C   0  0  0  0  0  0  0  0  0  0  0  0
   -0.7500   -1.2990    0.0000 C   0  0  0  0  0  0  0  0  0  0  0  0
   -1.5000    0.0000    0.0000 C   0  0  0  0  0  0  0  0  0  0  0  0
   -0.7500    1.2990    0.0000 C   0  0  0  0  0  0  0  0  0  0  0  0
    0.7500    1.2990    0.0000 C   0  0  0  0  0  0  0  0  0  0  0  0
    3.7500    1.2990    0.0000 C   0  0  0  0  0  0  0  0  0  0  0  0
    5.2500    1.2990    0.0000 C   0  0  0  0  0  0  0  0  0  0  0  0
    6.0000    2.5981    0.0000 N   0  0  0  0  0  0  0  0  0  0  0  0
    7.5000    2.5981    0.0000 C   0  0  0  0  0  0  0  0  0  0  0  0
    8.2500    3.8971    0.0000 C   0  0  0  0  0  0  0  0  0  0  0  0
    7.5000    5.1962    0.0000 O   0  0  0  0  0  0  0  0  0  0  0  0
    9.7500    3.8971    0.0000 O   0  0  0  0  0  0  0  0  0  0  0  0
    5.2500    3.8971    0.0000 C   0  0  0  0  0  0  0  0  0  0  0  0
    3.7500    3.8971    0.0000 C   0  0  0  0  0  0  0  0  0  0  0  0
    3.0000    2.5981    0.0000 O   0  0  0  0  0  0  0  0  0  0  0  0
    3.0000    5.1962    0.0000 O   0  0  0  0  0  0  0  0  0  0  0  0
    9.7500   -3.8971    0.0000 O   0  0  0  0  0  0  0  0  0  0  0  0
  1  2  1  0
  2  3  1  0
  3  4  1  0
  4  5  1  0
  5  6  1  0
  6  7  2  0
  6  8  1  0
  4  9  1  0
  9 10  1  0
 10 11  1  0
 11 12  1  0
 12 13  2  0
 13 14  1  0
 14 15  2  0
 15 16  1  0
 16 17  2  0
 11 18  1  0
 18 19  1  0
 19 20  1  0
 20 21  1  0
 21 22  1  0
 22 23  2  0
 22 24  1  0
 20 25  1  0
 25 26  1  0
 26 27  2  0
 26 28  1  0
  2 29  2  0
 17 12  1  0
M  END
>  <Name>  (41) 
N-Phenyliminobis(ethylenenitrilo)tetraacetic_acid

>  <logK_Dy_z=3.0_T=25_I=0.1>  (41) 
15.35

$$$$

     RDKit          2D

 27 26  0  0  0  0  0  0  0  0999 V2000
    2.5981   -0.0000    0.0000 O   0  0  0  0  0  0  0  0  0  0  0  0
    1.2990    0.7500    0.0000 C   0  0  0  0  0  0  0  0  0  0  0  0
    0.0000    0.0000    0.0000 C   0  0  0  0  0  0  0  0  0  0  0  0
   -1.2990    0.7500    0.0000 N   0  0  0  0  0  0  0  0  0  0  0  0
   -2.5981    0.0000    0.0000 C   0  0  0  0  0  0  0  0  0  0  0  0
   -3.8971    0.7500    0.0000 C   0  0  0  0  0  0  0  0  0  0  0  0
   -5.1962    0.0000    0.0000 N   0  0  0  0  0  0  0  0  0  0  0  0
   -6.4952    0.7500    0.0000 C   0  0  0  0  0  0  0  0  0  0  0  0
   -7.7942    0.0000    0.0000 C   0  0  0  0  0  0  0  0  0  0  0  0
   -7.7942   -1.5000    0.0000 O   0  0  0  0  0  0  0  0  0  0  0  0
   -9.0933    0.7500    0.0000 O   0  0  0  0  0  0  0  0  0  0  0  0
   -5.1962   -1.5000    0.0000 C   0  0  0  0  0  0  0  0  0  0  0  0
   -3.8971   -2.2500    0.0000 C   0  0  0  0  0  0  0  0  0  0  0  0
   -2.5981   -1.5000    0.0000 O   0  0  0  0  0  0  0  0  0  0  0  0
   -3.8971   -3.7500    0.0000 O   0  0  0  0  0  0  0  0  0  0  0  0
   -1.2990    2.2500    0.0000 C   0  0  0  0  0  0  0  0  0  0  0  0
   -2.5981    3.0000    0.0000 C   0  0  0  0  0  0  0  0  0  0  0  0
   -2.5981    4.5000    0.0000 N   0  0  0  0  0  0  0  0  0  0  0  0
   -3.8971    5.2500    0.0000 C   0  0  0  0  0  0  0  0  0  0  0  0
   -3.8971    6.7500    0.0000 C   0  0  0  0  0  0  0  0  0  0  0  0
   -2.5981    7.5000    0.0000 O   0  0  0  0  0  0  0  0  0  0  0  0
   -5.1962    7.5000    0.0000 O   0  0  0  0  0  0  0  0  0  0  0  0
   -1.2990    5.2500    0.0000 C   0  0  0  0  0  0  0  0  0  0  0  0
    0.0000    4.5000    0.0000 C   0  0  0  0  0  0  0  0  0  0  0  0
   -0.0000    3.0000    0.0000 O   0  0  0  0  0  0  0  0  0  0  0  0
    1.2990    5.2500    0.0000 O   0  0  0  0  0  0  0  0  0  0  0  0
    1.2990    2.2500    0.0000 O   0  0  0  0  0  0  0  0  0  0  0  0
  1  2  1  0
  2  3  1  0
  3  4  1  0
  4  5  1  0
  5  6  1  0
  6  7  1  0
  7  8  1  0
  8  9  1  0
  9 10  2  0
  9 11  1  0
  7 12  1  0
 12 13  1  0
 13 14  2  0
 13 15  1  0
  4 16  1  0
 16 17  1  0
 17 18  1  0
 18 19  1  0
 19 20  1  0
 20 21  2  0
 20 22  1  0
 18 23  1  0
 23 24  1  0
 24 25  2  0
 24 26  1  0
  2 27  2  0
M  END
>  <Name>  (42) 
Diethylenetrinitrilopentaacetic_acid_(DTPA)

>  <logK_Dy_z=3.0_T=25_I=0.1>  (42) 
22.83

>  <logK_Dy_z=3.0_T=25_I=0.5>  (42) 
21.11

$$$$

     RDKit          2D

 30 29  0  0  0  0  0  0  0  0999 V2000
    5.1962    7.5000    0.0000 C   0  0  0  0  0  0  0  0  0  0  0  0
    3.8971    8.2500    0.0000 O   0  0  0  0  0  0  0  0  0  0  0  0
    6.4952    8.2500    0.0000 O   0  0  0  0  0  0  0  0  0  0  0  0
    5.1962    6.0000    0.0000 C   0  0  0  0  0  0  0  0  0  0  0  0
    3.8971    5.2500    0.0000 N   0  0  0  0  0  0  0  0  0  0  0  0
    3.8971    3.7500    0.0000 C   0  0  0  0  0  0  0  0  0  0  0  0
    2.5981    3.0000    0.0000 C   0  0  0  0  0  0  0  0  0  0  0  0
    2.5981    1.5000    0.0000 C   0  0  0  0  0  0  0  0  0  0  0  0
    1.2990    0.7500    0.0000 N   0  0  0  0  0  4  0  0  0  0  0  0
    0.0000    0.0000    0.0000 C   0  0  0  0  0  0  0  0  0  0  0  0
    2.0490   -0.5490    0.0000 C   0  0  0  0  0  0  0  0  0  0  0  0
    3.5490   -0.5490    0.0000 C   0  0  0  0  0  0  0  0  0  0  0  0
    4.2990   -1.8481    0.0000 C   0  0  0  0  0  0  0  0  0  0  0  0
    5.7990   -1.8481    0.0000 N   0  0  0  0  0  0  0  0  0  0  0  0
    6.5490   -3.1471    0.0000 C   0  0  0  0  0  0  0  0  0  0  0  0
    8.0490   -3.1471    0.0000 C   0  0  0  0  0  0  0  0  0  0  0  0
    8.7990   -1.8481    0.0000 O   0  0  0  0  0  0  0  0  0  0  0  0
    8.7990   -4.4462    0.0000 O   0  0  0  0  0  0  0  0  0  0  0  0
    6.5490   -0.5490    0.0000 C   0  0  0  0  0  0  0  0  0  0  0  0
    5.7990    0.7500    0.0000 C   0  0  0  0  0  0  0  0  0  0  0  0
    4.2990    0.7500    0.0000 O   0  0  0  0  0  0  0  0  0  0  0  0
    6.5490    2.0490    0.0000 O   0  0  0  0  0  0  0  0  0  0  0  0
    0.5490    2.0490    0.0000 C   0  0  0  0  0  0  0  0  0  0  0  0
   -0.9510    2.0490    0.0000 C   0  0  0  0  0  0  0  0  0  0  0  0
   -1.7010    0.7500    0.0000 O   0  0  0  0  0  0  0  0  0  0  0  0
   -1.7010    3.3481    0.0000 O   0  0  0  0  0  1  0  0  0  0  0  0
    2.5981    6.0000    0.0000 C   0  0  0  0  0  0  0  0  0  0  0  0
    1.2990    5.2500    0.0000 C   0  0  0  0  0  0  0  0  0  0  0  0
   -0.0000    6.0000    0.0000 O   0  0  0  0  0  0  0  0  0  0  0  0
    1.2990    3.7500    0.0000 O   0  0  0  0  0  0  0  0  0  0  0  0
  1  2  2  0
  1  3  1  0
  1  4  1  0
  4  5  1  0
  5  6  1  0
  6  7  1  0
  7  8  1  0
  8  9  1  0
  9 10  1  0
  9 11  1  0
 11 12  1  0
 12 13  1  0
 13 14  1  0
 14 15  1  0
 15 16  1  0
 16 17  2  0
 16 18  1  0
 14 19  1  0
 19 20  1  0
 20 21  2  0
 20 22  1  0
  9 23  1  0
 23 24  1  0
 24 25  2  0
 24 26  1  0
  5 27  1  0
 27 28  1  0
 28 29  2  0
 28 30  1  0
M  CHG  2   9   1  26  -1
M  END
>  <Name>  (43) 
{Bis[3-(bis(carboxymethyl)amino)propyl]methylammonio}acetate

>  <logK_Dy_z=3.0_T=25_I=0.1>  (43) 
9.0

$$$$

     RDKit          2D

 34 33  0  0  0  0  0  0  0  0999 V2000
    2.5981   -0.0000    0.0000 O   0  0  0  0  0  0  0  0  0  0  0  0
    1.2990    0.7500    0.0000 C   0  0  0  0  0  0  0  0  0  0  0  0
    1.2990    2.2500    0.0000 O   0  0  0  0  0  0  0  0  0  0  0  0
    0.0000    0.0000    0.0000 C   0  0  0  0  0  0  0  0  0  0  0  0
   -1.2990    0.7500    0.0000 N   0  0  0  0  0  0  0  0  0  0  0  0
   -2.5981    0.0000    0.0000 C   0  0  0  0  0  0  0  0  0  0  0  0
   -3.8971    0.7500    0.0000 C   0  0  0  0  0  0  0  0  0  0  0  0
   -5.1962    0.0000    0.0000 N   0  0  0  0  0  0  0  0  0  0  0  0
   -6.4952    0.7500    0.0000 C   0  0  0  0  0  0  0  0  0  0  0  0
   -7.7942    0.0000    0.0000 C   0  0  0  0  0  0  0  0  0  0  0  0
   -9.0933    0.7500    0.0000 N   0  0  0  0  0  0  0  0  0  0  0  0
  -10.3923    0.0000    0.0000 C   0  0  0  0  0  0  0  0  0  0  0  0
  -11.6913    0.7500    0.0000 C   0  0  0  0  0  0  0  0  0  0  0  0
  -12.9904    0.0000    0.0000 O   0  0  0  0  0  0  0  0  0  0  0  0
  -11.6913    2.2500    0.0000 O   0  0  0  0  0  0  0  0  0  0  0  0
   -9.0933    2.2500    0.0000 C   0  0  0  0  0  0  0  0  0  0  0  0
   -7.7942    3.0000    0.0000 C   0  0  0  0  0  0  0  0  0  0  0  0
   -7.7942    4.5000    0.0000 O   0  0  0  0  0  0  0  0  0  0  0  0
   -6.4952    2.2500    0.0000 O   0  0  0  0  0  0  0  0  0  0  0  0
   -5.1962   -1.5000    0.0000 C   0  0  0  0  0  0  0  0  0  0  0  0
   -6.4952   -2.2500    0.0000 C   0  0  0  0  0  0  0  0  0  0  0  0
   -6.4952   -3.7500    0.0000 O   0  0  0  0  0  0  0  0  0  0  0  0
   -7.7942   -1.5000    0.0000 O   0  0  0  0  0  0  0  0  0  0  0  0
   -1.2990    2.2500    0.0000 C   0  0  0  0  0  0  0  0  0  0  0  0
   -2.5981    3.0000    0.0000 C   0  0  0  0  0  0  0  0  0  0  0  0
   -2.5981    4.5000    0.0000 N   0  0  0  0  0  0  0  0  0  0  0  0
   -3.8971    5.2500    0.0000 C   0  0  0  0  0  0  0  0  0  0  0  0
   -3.8971    6.7500    0.0000 C   0  0  0  0  0  0  0  0  0  0  0  0
   -5.1962    7.5000    0.0000 O   0  0  0  0  0  0  0  0  0  0  0  0
   -2.5981    7.5000    0.0000 O   0  0  0  0  0  0  0  0  0  0  0  0
   -1.2990    5.2500    0.0000 C   0  0  0  0  0  0  0  0  0  0  0  0
    0.0000    4.5000    0.0000 C   0  0  0  0  0  0  0  0  0  0  0  0
    1.2990    5.2500    0.0000 O   0  0  0  0  0  0  0  0  0  0  0  0
   -0.0000    3.0000    0.0000 O   0  0  0  0  0  0  0  0  0  0  0  0
  1  2  1  0
  2  3  2  0
  2  4  1  0
  4  5  1  0
  5  6  1  0
  6  7  1  0
  7  8  1  0
  8  9  1  0
  9 10  1  0
 10 11  1  0
 11 12  1  0
 12 13  1  0
 13 14  1  0
 13 15  2  0
 11 16  1  0
 16 17  1  0
 17 18  1  0
 17 19  2  0
  8 20  1  0
 20 21  1  0
 21 22  1  0
 21 23  2  0
  5 24  1  0
 24 25  1  0
 25 26  1  0
 26 27  1  0
 27 28  1  0
 28 29  1  0
 28 30  2  0
 26 31  1  0
 31 32  1  0
 32 33  1  0
 32 34  2  0
M  END
>  <Name>  (44) 
Triethylenetetranitrilohexaacetic_acid_(TTHA)

>  <logK_Dy_z=3.0_T=25_I=0.1>  (44) 
23.1

$$$$

     RDKit          2D

 24 24  0  0  0  0  0  0  0  0999 V2000
    1.5000   -2.5981    0.0000 O   0  0  0  0  0  0  0  0  0  0  0  0
    3.0000   -2.5981    0.0000 C   0  0  0  0  0  0  0  0  0  0  0  0
    3.7500   -1.2990    0.0000 C   0  0  0  0  0  0  0  0  0  0  0  0
    3.0000    0.0000    0.0000 N   0  0  0  0  0  0  0  0  0  0  0  0
    3.7500    1.2990    0.0000 C   0  0  0  0  0  0  0  0  0  0  0  0
    5.2500    1.2990    0.0000 C   0  0  0  0  0  0  0  0  0  0  0  0
    6.0000    0.0000    0.0000 O   0  0  0  0  0  0  0  0  0  0  0  0
    6.0000    2.5981    0.0000 O   0  0  0  0  0  0  0  0  0  0  0  0
    1.5000    0.0000    0.0000 C   0  0  0  0  0  0  0  0  0  0  0  0
    0.7500   -1.2990    0.0000 C   0  0  0  0  0  0  0  0  0  0  0  0
   -0.7500   -1.2990    0.0000 C   0  0  0  0  0  0  0  0  0  0  0  0
   -1.5000    0.0000    0.0000 C   0  0  0  0  0  0  0  0  0  0  0  0
   -0.7500    1.2990    0.0000 C   0  0  0  0  0  0  0  0  0  0  0  0
    0.7500    1.2990    0.0000 C   0  0  0  0  0  0  0  0  0  0  0  0
    1.5000    2.5981    0.0000 N   0  0  0  0  0  0  0  0  0  0  0  0
    0.7500    3.8971    0.0000 C   0  0  0  0  0  0  0  0  0  0  0  0
   -0.7500    3.8971    0.0000 C   0  0  0  0  0  0  0  0  0  0  0  0
   -1.5000    2.5981    0.0000 O   0  0  0  0  0  0  0  0  0  0  0  0
   -1.5000    5.1962    0.0000 O   0  0  0  0  0  0  0  0  0  0  0  0
    3.0000    2.5981    0.0000 C   0  0  0  0  0  0  0  0  0  0  0  0
    3.7500    3.8971    0.0000 C   0  0  0  0  0  0  0  0  0  0  0  0
    3.0000    5.1962    0.0000 O   0  0  0  0  0  0  0  0  0  0  0  0
    5.2500    3.8971    0.0000 O   0  0  0  0  0  0  0  0  0  0  0  0
    3.7500   -3.8971    0.0000 O   0  0  0  0  0  0  0  0  0  0  0  0
  1  2  1  0
  2  3  1  0
  3  4  1  0
  4  5  1  0
  5  6  1  0
  6  7  2  0
  6  8  1  0
  4  9  1  0
  9 10  2  0
 10 11  1  0
 11 12  2  0
 12 13  1  0
 13 14  2  0
 14 15  1  0
 15 16  1  0
 16 17  1  0
 17 18  2  0
 17 19  1  0
 15 20  1  0
 20 21  1  0
 21 22  2  0
 21 23  1  0
  2 24  2  0
 14  9  1  0
M  END
>  <Name>  (45) 
1,2-Phenylenedinitrilotetraacetic_acid

>  <logK_Dy_z=3.0_T=25_I=1.0>  (45) 
14.89

$$$$

     RDKit          2D

  9  9  0  0  0  0  0  0  0  0999 V2000
    1.5000    0.0000    0.0000 C   0  0  0  0  0  0  0  0  0  0  0  0
    0.7500   -1.2990    0.0000 C   0  0  0  0  0  0  0  0  0  0  0  0
   -0.7500   -1.2990    0.0000 N   0  0  0  0  0  0  0  0  0  0  0  0
   -1.5000    0.0000    0.0000 C   0  0  0  0  0  0  0  0  0  0  0  0
   -0.7500    1.2990    0.0000 C   0  0  0  0  0  0  0  0  0  0  0  0
    0.7500    1.2990    0.0000 C   0  0  0  0  0  0  0  0  0  0  0  0
   -3.0000    0.0000    0.0000 C   0  0  0  0  0  0  0  0  0  0  0  0
   -3.7500   -1.2990    0.0000 O   0  0  0  0  0  0  0  0  0  0  0  0
   -3.7500    1.2990    0.0000 O   0  0  0  0  0  0  0  0  0  0  0  0
  1  2  2  0
  2  3  1  0
  3  4  2  0
  4  5  1  0
  5  6  2  0
  4  7  1  0
  7  8  2  0
  7  9  1  0
  6  1  1  0
M  END
>  <Name>  (46) 
Pyridine-2-carboxylic_acid_(Picolinic_acid)

>  <logK_Dy_z=3.0_T=25_I=0.1>  (46) 
4.17

>  <logK_Dy_z=3.0_T=25_I=0.5>  (46) 
3.83

$$$$

     RDKit          2D

 10 10  0  0  0  0  0  0  0  0999 V2000
    3.0000    0.0000    0.0000 O   0  0  0  0  0  1  0  0  0  0  0  0
    1.5000    0.0000    0.0000 N   0  0  0  0  0  4  0  0  0  0  0  0
    0.7500   -1.2990    0.0000 C   0  0  0  0  0  0  0  0  0  0  0  0
   -0.7500   -1.2990    0.0000 C   0  0  0  0  0  0  0  0  0  0  0  0
   -1.5000    0.0000    0.0000 C   0  0  0  0  0  0  0  0  0  0  0  0
   -0.7500    1.2990    0.0000 C   0  0  0  0  0  0  0  0  0  0  0  0
    0.7500    1.2990    0.0000 C   0  0  0  0  0  0  0  0  0  0  0  0
    1.5000    2.5981    0.0000 C   0  0  0  0  0  0  0  0  0  0  0  0
    0.7500    3.8971    0.0000 O   0  0  0  0  0  0  0  0  0  0  0  0
    3.0000    2.5981    0.0000 O   0  0  0  0  0  0  0  0  0  0  0  0
  1  2  1  0
  2  3  2  0
  3  4  1  0
  4  5  2  0
  5  6  1  0
  6  7  2  0
  7  8  1  0
  8  9  2  0
  8 10  1  0
  7  2  1  0
M  CHG  2   1  -1   2   1
M  END
>  <Name>  (47) 
Pyridine-2-carboxylic_acid_N-oxide

>  <logK_Dy_z=3.0_T=25_I=2.0>  (47) 
3.0

$$$$

     RDKit          2D

  9  9  0  0  0  0  0  0  0  0999 V2000
    3.7500   -1.2990    0.0000 O   0  0  0  0  0  0  0  0  0  0  0  0
    3.0000    0.0000    0.0000 C   0  0  0  0  0  0  0  0  0  0  0  0
    1.5000    0.0000    0.0000 C   0  0  0  0  0  0  0  0  0  0  0  0
    0.7500   -1.2990    0.0000 C   0  0  0  0  0  0  0  0  0  0  0  0
   -0.7500   -1.2990    0.0000 N   0  0  0  0  0  0  0  0  0  0  0  0
   -1.5000    0.0000    0.0000 C   0  0  0  0  0  0  0  0  0  0  0  0
   -0.7500    1.2990    0.0000 C   0  0  0  0  0  0  0  0  0  0  0  0
    0.7500    1.2990    0.0000 C   0  0  0  0  0  0  0  0  0  0  0  0
    3.7500    1.2990    0.0000 O   0  0  0  0  0  0  0  0  0  0  0  0
  1  2  1  0
  2  3  1  0
  3  4  2  0
  4  5  1  0
  5  6  2  0
  6  7  1  0
  7  8  2  0
  2  9  2  0
  8  3  1  0
M  END
>  <Name>  (48) 
Pyridine-3-carboxylic_acid_(Nicotinic_acid)

>  <logK_Dy_z=3.0_T=25_I=0.1>  (48) 
1.75

$$$$

     RDKit          2D

 12 12  0  0  0  0  0  0  0  0999 V2000
    1.5000    0.0000    0.0000 N   0  0  0  0  0  0  0  0  0  0  0  0
    0.7500   -1.2990    0.0000 C   0  0  0  0  0  0  0  0  0  0  0  0
    1.5000   -2.5981    0.0000 C   0  0  0  0  0  0  0  0  0  0  0  0
    3.0000   -2.5981    0.0000 O   0  0  0  0  0  0  0  0  0  0  0  0
    0.7500   -3.8971    0.0000 O   0  0  0  0  0  0  0  0  0  0  0  0
   -0.7500   -1.2990    0.0000 C   0  0  0  0  0  0  0  0  0  0  0  0
   -1.5000   -2.5981    0.0000 C   0  0  0  0  0  0  0  0  0  0  0  0
   -0.7500   -3.8971    0.0000 O   0  0  0  0  0  0  0  0  0  0  0  0
   -3.0000   -2.5981    0.0000 O   0  0  0  0  0  0  0  0  0  0  0  0
   -1.5000    0.0000    0.0000 C   0  0  0  0  0  0  0  0  0  0  0  0
   -0.7500    1.2990    0.0000 C   0  0  0  0  0  0  0  0  0  0  0  0
    0.7500    1.2990    0.0000 C   0  0  0  0  0  0  0  0  0  0  0  0
  1  2  2  0
  2  3  1  0
  3  4  1  0
  3  5  2  0
  2  6  1  0
  6  7  1  0
  7  8  2  0
  7  9  1  0
  6 10  2  0
 10 11  1  0
 11 12  2  0
 12  1  1  0
M  END
>  <Name>  (49) 
Pyridine-2,3-dicarboxylic_acid_(Quinolinic_acid)

>  <logK_Dy_z=3.0_T=25_I=0.5>  (49) 
3.78

$$$$

     RDKit          2D

 12 12  0  0  0  0  0  0  0  0999 V2000
    1.5000    0.0000    0.0000 N   0  0  0  0  0  0  0  0  0  0  0  0
    0.7500   -1.2990    0.0000 C   0  0  0  0  0  0  0  0  0  0  0  0
    1.5000   -2.5981    0.0000 C   0  0  0  0  0  0  0  0  0  0  0  0
    0.7500   -3.8971    0.0000 O   0  0  0  0  0  0  0  0  0  0  0  0
    3.0000   -2.5981    0.0000 O   0  0  0  0  0  0  0  0  0  0  0  0
   -0.7500   -1.2990    0.0000 C   0  0  0  0  0  0  0  0  0  0  0  0
   -1.5000    0.0000    0.0000 C   0  0  0  0  0  0  0  0  0  0  0  0
   -0.7500    1.2990    0.0000 C   0  0  0  0  0  0  0  0  0  0  0  0
    0.7500    1.2990    0.0000 C   0  0  0  0  0  0  0  0  0  0  0  0
    1.5000    2.5981    0.0000 C   0  0  0  0  0  0  0  0  0  0  0  0
    3.0000    2.5981    0.0000 O   0  0  0  0  0  0  0  0  0  0  0  0
    0.7500    3.8971    0.0000 O   0  0  0  0  0  0  0  0  0  0  0  0
  1  2  2  0
  2  3  1  0
  3  4  1  0
  3  5  2  0
  2  6  1  0
  6  7  2  0
  7  8  1  0
  8  9  2  0
  9 10  1  0
 10 11  1  0
 10 12  2  0
  9  1  1  0
M  END
>  <Name>  (50) 
Pyridine-2,6-dicarboxylic_acid_(Dipicolinic_acid)

>  <logK_Dy_z=3.0_T=25_I=0.5>  (50) 
8.66

$$$$

     RDKit          2D

 16 16  0  0  0  0  0  0  0  0999 V2000
    5.2500    1.2990    0.0000 O   0  0  0  0  0  0  0  0  0  0  0  0
    6.0000    0.0000    0.0000 C   0  0  0  0  0  0  0  0  0  0  0  0
    5.2500   -1.2990    0.0000 C   0  0  0  0  0  0  0  0  0  0  0  0
    3.7500   -1.2990    0.0000 N   0  0  0  0  0  0  0  0  0  0  0  0
    3.0000   -2.5981    0.0000 C   0  0  0  0  0  0  0  0  0  0  0  0
    3.7500   -3.8971    0.0000 C   0  0  0  0  0  0  0  0  0  0  0  0
    5.2500   -3.8971    0.0000 O   0  0  0  0  0  0  0  0  0  0  0  0
    3.0000   -5.1962    0.0000 O   0  0  0  0  0  0  0  0  0  0  0  0
    3.0000    0.0000    0.0000 C   0  0  0  0  0  0  0  0  0  0  0  0
    1.5000    0.0000    0.0000 C   0  0  0  0  0  0  0  0  0  0  0  0
    0.7500   -1.2990    0.0000 C   0  0  0  0  0  0  0  0  0  0  0  0
   -0.7500   -1.2990    0.0000 C   0  0  0  0  0  0  0  0  0  0  0  0
   -1.5000    0.0000    0.0000 C   0  0  0  0  0  0  0  0  0  0  0  0
   -0.7500    1.2990    0.0000 C   0  0  0  0  0  0  0  0  0  0  0  0
    0.7500    1.2990    0.0000 N   0  0  0  0  0  0  0  0  0  0  0  0
    7.5000   -0.0000    0.0000 O   0  0  0  0  0  0  0  0  0  0  0  0
  1  2  1  0
  2  3  1  0
  3  4  1  0
  4  5  1  0
  5  6  1  0
  6  7  2  0
  6  8  1  0
  4  9  1  0
  9 10  1  0
 10 11  2  0
 11 12  1  0
 12 13  2  0
 13 14  1  0
 14 15  2  0
  2 16  2  0
 15 10  1  0
M  END
>  <Name>  (51) 
N-(2-Pyridylmethyl)iminodiacetic_acid

>  <logK_Dy_z=3.0_T=25_I=0.1>  (51) 
9.0

$$$$

     RDKit          2D

 17 17  0  0  0  0  0  0  0  0999 V2000
    3.0000    0.0000    0.0000 C   0  0  0  0  0  0  0  0  0  0  0  0
    1.5000    0.0000    0.0000 C   0  0  0  0  0  0  0  0  0  0  0  0
    0.7500   -1.2990    0.0000 C   0  0  0  0  0  0  0  0  0  0  0  0
   -0.7500   -1.2990    0.0000 C   0  0  0  0  0  0  0  0  0  0  0  0
   -1.5000    0.0000    0.0000 C   0  0  0  0  0  0  0  0  0  0  0  0
   -0.7500    1.2990    0.0000 C   0  0  0  0  0  0  0  0  0  0  0  0
    0.7500    1.2990    0.0000 N   0  0  0  0  0  0  0  0  0  0  0  0
   -1.5000    2.5981    0.0000 C   0  0  0  0  0  0  0  0  0  0  0  0
   -0.7500    3.8971    0.0000 N   0  0  0  0  0  0  0  0  0  0  0  0
   -1.5000    5.1962    0.0000 C   0  0  0  0  0  0  0  0  0  0  0  0
   -3.0000    5.1962    0.0000 C   0  0  0  0  0  0  0  0  0  0  0  0
   -3.7500    3.8971    0.0000 O   0  0  0  0  0  0  0  0  0  0  0  0
   -3.7500    6.4952    0.0000 O   0  0  0  0  0  0  0  0  0  0  0  0
    0.7500    3.8971    0.0000 C   0  0  0  0  0  0  0  0  0  0  0  0
    1.5000    5.1962    0.0000 C   0  0  0  0  0  0  0  0  0  0  0  0
    0.7500    6.4952    0.0000 O   0  0  0  0  0  0  0  0  0  0  0  0
    3.0000    5.1962    0.0000 O   0  0  0  0  0  0  0  0  0  0  0  0
  1  2  1  0
  2  3  2  0
  3  4  1  0
  4  5  2  0
  5  6  1  0
  6  7  2  0
  6  8  1  0
  8  9  1  0
  9 10  1  0
 10 11  1  0
 11 12  2  0
 11 13  1  0
  9 14  1  0
 14 15  1  0
 15 16  2  0
 15 17  1  0
  7  2  1  0
M  END
>  <Name>  (52) 
N-(6-Methyl-2-pyridylmethyl)iminodiacetic_acid

>  <logK_Dy_z=3.0_T=25_I=0.1>  (52) 
7.23

$$$$

     RDKit          2D

 23 25  0  0  0  0  0  0  0  0999 V2000
   -1.2135   -2.7256    0.0000 N   0  0  0  0  0  0  0  0  0  0  0  0
   -2.6401   -3.1891    0.0000 C   0  0  0  0  0  0  0  0  0  0  0  0
   -3.1036   -4.6157    0.0000 C   0  0  0  0  0  0  0  0  0  0  0  0
   -2.2220   -5.8293    0.0000 O   0  0  0  0  0  0  0  0  0  0  0  0
   -4.6036   -4.6157    0.0000 C   0  0  0  0  0  0  0  0  0  0  0  0
   -5.4853   -5.8293    0.0000 O   0  0  0  0  0  0  0  0  0  0  0  0
   -5.0672   -3.1891    0.0000 C   0  0  0  0  0  0  0  0  0  0  0  0
   -6.4937   -2.7256    0.0000 C   0  0  0  0  0  0  0  0  0  0  0  0
   -6.8056   -1.2584    0.0000 O   0  0  0  0  0  0  0  0  0  0  0  0
   -8.2322   -0.7949    0.0000 P   0  0  0  0  0  0  0  0  0  0  0  0
   -8.6957   -2.2215    0.0000 O   0  0  0  0  0  0  0  0  0  0  0  0
   -7.7687    0.6317    0.0000 O   0  0  0  0  0  0  0  0  0  0  0  0
   -9.6588   -0.3314    0.0000 O   0  0  0  0  0  0  0  0  0  0  0  0
   -3.8536   -2.3075    0.0000 O   0  0  0  0  0  0  0  0  0  0  0  0
   -0.0000   -3.6073    0.0000 C   0  0  0  0  0  0  0  0  0  0  0  0
    1.2135   -2.7256    0.0000 N   0  0  0  0  0  0  0  0  0  0  0  0
    0.7500   -1.2990    0.0000 C   0  0  0  0  0  0  0  0  0  0  0  0
    1.5000    0.0000    0.0000 C   0  0  0  0  0  0  0  0  0  0  0  0
    0.7500    1.2990    0.0000 N   0  0  0  0  0  0  0  0  0  0  0  0
   -0.7500    1.2990    0.0000 C   0  0  0  0  0  0  0  0  0  0  0  0
   -1.5000    0.0000    0.0000 N   0  0  0  0  0  0  0  0  0  0  0  0
   -0.7500   -1.2990    0.0000 C   0  0  0  0  0  0  0  0  0  0  0  0
    3.0000    0.0000    0.0000 N   0  0  0  0  0  0  0  0  0  0  0  0
  2  1  1  1
  2  3  1  0
  3  4  1  6
  3  5  1  0
  5  6  1  6
  5  7  1  0
  7  8  1  1
  8  9  1  0
  9 10  1  0
 10 11  1  0
 10 12  2  0
 10 13  1  0
  7 14  1  0
  1 15  1  0
 15 16  2  0
 16 17  1  0
 17 18  2  0
 18 19  1  0
 19 20  2  0
 20 21  1  0
 21 22  2  0
 18 23  1  0
 22  1  1  0
 14  2  1  0
 22 17  1  0
M  END
>  <Name>  (53) 
Adenosine-5'-(dihydrogenphosphate)_(AMP-5)

>  <logK_Dy_z=3.0_T=25_I=0.1>  (53) 
4.635

$$$$

     RDKit          2D

 31 33  0  0  0  0  0  0  0  0999 V2000
   -1.2135   -2.7256    0.0000 N   0  0  0  0  0  0  0  0  0  0  0  0
   -2.6401   -3.1891    0.0000 C   0  0  0  0  0  0  0  0  0  0  0  0
   -3.1036   -4.6157    0.0000 C   0  0  0  0  0  0  0  0  0  0  0  0
   -2.2220   -5.8293    0.0000 O   0  0  0  0  0  0  0  0  0  0  0  0
   -4.6036   -4.6157    0.0000 C   0  0  0  0  0  0  0  0  0  0  0  0
   -5.4853   -5.8293    0.0000 O   0  0  0  0  0  0  0  0  0  0  0  0
   -5.0672   -3.1891    0.0000 C   0  0  0  0  0  0  0  0  0  0  0  0
   -6.4937   -2.7256    0.0000 C   0  0  0  0  0  0  0  0  0  0  0  0
   -6.8056   -1.2584    0.0000 O   0  0  0  0  0  0  0  0  0  0  0  0
   -8.2322   -0.7949    0.0000 P   0  0  0  0  0  0  0  0  0  0  0  0
   -7.7687    0.6317    0.0000 O   0  0  0  0  0  0  0  0  0  0  0  0
   -8.6957   -2.2215    0.0000 O   0  0  0  0  0  0  0  0  0  0  0  0
   -9.6588   -0.3314    0.0000 O   0  0  0  0  0  0  0  0  0  0  0  0
  -10.7735   -1.3350    0.0000 P   0  0  0  0  0  0  0  0  0  0  0  0
   -9.7698   -2.4498    0.0000 O   0  0  0  0  0  0  0  0  0  0  0  0
  -11.7772   -0.2203    0.0000 O   0  0  0  0  0  0  0  0  0  0  0  0
  -11.8882   -2.3387    0.0000 O   0  0  0  0  0  0  0  0  0  0  0  0
  -11.5764   -3.8060    0.0000 P   0  0  0  0  0  0  0  0  0  0  0  0
  -10.1091   -3.4941    0.0000 O   0  0  0  0  0  0  0  0  0  0  0  0
  -13.0436   -4.1178    0.0000 O   0  0  0  0  0  0  0  0  0  0  0  0
  -11.2645   -5.2732    0.0000 O   0  0  0  0  0  0  0  0  0  0  0  0
   -3.8536   -2.3075    0.0000 O   0  0  0  0  0  0  0  0  0  0  0  0
   -0.0000   -3.6073    0.0000 C   0  0  0  0  0  0  0  0  0  0  0  0
    1.2135   -2.7256    0.0000 N   0  0  0  0  0  0  0  0  0  0  0  0
    0.7500   -1.2990    0.0000 C   0  0  0  0  0  0  0  0  0  0  0  0
    1.5000    0.0000    0.0000 C   0  0  0  0  0  0  0  0  0  0  0  0
    0.7500    1.2990    0.0000 N   0  0  0  0  0  0  0  0  0  0  0  0
   -0.7500    1.2990    0.0000 C   0  0  0  0  0  0  0  0  0  0  0  0
   -1.5000    0.0000    0.0000 N   0  0  0  0  0  0  0  0  0  0  0  0
   -0.7500   -1.2990    0.0000 C   0  0  0  0  0  0  0  0  0  0  0  0
    3.0000    0.0000    0.0000 N   0  0  0  0  0  0  0  0  0  0  0  0
  2  1  1  1
  2  3  1  0
  3  4  1  6
  3  5  1  0
  5  6  1  6
  5  7  1  0
  7  8  1  1
  8  9  1  0
  9 10  1  0
 10 11  1  0
 10 12  2  0
 10 13  1  0
 13 14  1  0
 14 15  1  0
 14 16  2  0
 14 17  1  0
 17 18  1  0
 18 19  1  0
 18 20  2  0
 18 21  1  0
  7 22  1  0
  1 23  1  0
 23 24  2  0
 24 25  1  0
 25 26  2  0
 26 27  1  0
 27 28  2  0
 28 29  1  0
 29 30  2  0
 26 31  1  0
 30  1  1  0
 22  2  1  0
 30 25  1  0
M  END
>  <Name>  (54) 
Adenosine-5'-(tetrahydrogentriphosphate)_(ATP)

>  <logK_Dy_z=3.0_T=25_I=0.1>  (54) 
6.545

$$$$

     RDKit          2D

  3  2  0  0  0  0  0  0  0  0999 V2000
    0.0000    0.0000    0.0000 C   0  0  0  0  0  0  0  0  0  0  0  0
    1.2990    0.7500    0.0000 O   0  0  0  0  0  0  0  0  0  0  0  0
   -1.2990    0.7500    0.0000 O   0  0  0  0  0  0  0  0  0  0  0  0
  1  2  1  0
  1  3  2  0
M  END
>  <Name>  (55) 
Methanoic_acid_(Formic_acid)

>  <logK_Dy_z=3.0_T=25_I=0.1>  (55) 
1.21

$$$$

     RDKit          2D

  4  3  0  0  0  0  0  0  0  0999 V2000
    1.2990    0.7500    0.0000 C   0  0  0  0  0  0  0  0  0  0  0  0
    2.5981   -0.0000    0.0000 O   0  0  0  0  0  0  0  0  0  0  0  0
    1.2990    2.2500    0.0000 O   0  0  0  0  0  0  0  0  0  0  0  0
    0.0000    0.0000    0.0000 C   0  0  0  0  0  0  0  0  0  0  0  0
  1  2  1  0
  1  3  2  0
  1  4  1  0
M  END
>  <Name>  (56) 
Ethanoic_acid_(Acetic_acid)

>  <logK_Dy_z=3.0_T=25_I=0.1>  (56) 
1.85

>  <logK_Dy_z=3.0_T=25_I=2.0>  (56) 
1.71

$$$$

     RDKit          2D

  5  4  0  0  0  0  0  0  0  0999 V2000
    2.5981   -1.5000    0.0000 O   0  0  0  0  0  0  0  0  0  0  0  0
    2.5981   -0.0000    0.0000 C   0  0  0  0  0  0  0  0  0  0  0  0
    1.2990    0.7500    0.0000 C   0  0  0  0  0  0  0  0  0  0  0  0
    0.0000    0.0000    0.0000 C   0  0  0  0  0  0  0  0  0  0  0  0
    3.8971    0.7500    0.0000 O   0  0  0  0  0  0  0  0  0  0  0  0
  1  2  2  0
  2  3  1  0
  3  4  1  0
  2  5  1  0
M  END
>  <Name>  (57) 
Propanoic_acid_(Propionic_acid)

>  <logK_Dy_z=3.0_T=20_I=0.1>  (57) 
1.93

>  <logK_Dy_z=3.0_T=25_I=2.0>  (57) 
1.63

$$$$

     RDKit          2D

  6  5  0  0  0  0  0  0  0  0999 V2000
    0.0000    0.0000    0.0000 C   0  0  0  0  0  0  0  0  0  0  0  0
    1.2990    0.7500    0.0000 C   0  0  0  0  0  0  0  0  0  0  0  0
    1.2990    2.2500    0.0000 C   0  0  0  0  0  0  0  0  0  0  0  0
   -0.0000    3.0000    0.0000 O   0  0  0  0  0  0  0  0  0  0  0  0
    2.5981    3.0000    0.0000 O   0  0  0  0  0  0  0  0  0  0  0  0
    2.5981   -0.0000    0.0000 C   0  0  0  0  0  0  0  0  0  0  0  0
  1  2  1  0
  2  3  1  0
  3  4  2  0
  3  5  1  0
  2  6  1  0
M  END
>  <Name>  (58) 
2-Methylpropanoic_acid_(Isobutyric_acid)

>  <logK_Dy_z=3.0_T=25_I=0.5>  (58) 
1.74

>  <logK_Dy_z=3.0_T=25_I=2.0>  (58) 
1.65

$$$$

     RDKit          2D

  9  9  0  0  0  0  0  0  0  0999 V2000
    3.7500   -1.2990    0.0000 O   0  0  0  0  0  0  0  0  0  0  0  0
    3.0000    0.0000    0.0000 C   0  0  0  0  0  0  0  0  0  0  0  0
    1.5000    0.0000    0.0000 C   0  0  0  0  0  0  0  0  0  0  0  0
    0.7500   -1.2990    0.0000 C   0  0  0  0  0  0  0  0  0  0  0  0
   -0.7500   -1.2990    0.0000 C   0  0  0  0  0  0  0  0  0  0  0  0
   -1.5000    0.0000    0.0000 C   0  0  0  0  0  0  0  0  0  0  0  0
   -0.7500    1.2990    0.0000 C   0  0  0  0  0  0  0  0  0  0  0  0
    0.7500    1.2990    0.0000 C   0  0  0  0  0  0  0  0  0  0  0  0
    3.7500    1.2990    0.0000 O   0  0  0  0  0  0  0  0  0  0  0  0
  1  2  1  0
  2  3  1  0
  3  4  2  0
  4  5  1  0
  5  6  2  0
  6  7  1  0
  7  8  2  0
  2  9  2  0
  8  3  1  0
M  END
>  <Name>  (59) 
Benzenecarboxylic_acid_(Benzoic_acid)

>  <logK_Dy_z=3.0_T=25_I=0.1>  (59) 
1.96

$$$$

     RDKit          2D

 10 10  0  0  0  0  0  0  0  0999 V2000
    5.2500   -1.2990    0.0000 O   0  0  0  0  0  0  0  0  0  0  0  0
    3.7500   -1.2990    0.0000 C   0  0  0  0  0  0  0  0  0  0  0  0
    3.0000   -2.5981    0.0000 O   0  0  0  0  0  0  0  0  0  0  0  0
    3.0000    0.0000    0.0000 C   0  0  0  0  0  0  0  0  0  0  0  0
    1.5000    0.0000    0.0000 C   0  0  0  0  0  0  0  0  0  0  0  0
    0.7500   -1.2990    0.0000 C   0  0  0  0  0  0  0  0  0  0  0  0
   -0.7500   -1.2990    0.0000 C   0  0  0  0  0  0  0  0  0  0  0  0
   -1.5000    0.0000    0.0000 C   0  0  0  0  0  0  0  0  0  0  0  0
   -0.7500    1.2990    0.0000 C   0  0  0  0  0  0  0  0  0  0  0  0
    0.7500    1.2990    0.0000 C   0  0  0  0  0  0  0  0  0  0  0  0
  1  2  1  0
  2  3  2  0
  2  4  1  0
  4  5  1  0
  5  6  2  0
  6  7  1  0
  7  8  2  0
  8  9  1  0
  9 10  2  0
 10  5  1  0
M  END
>  <Name>  (60) 
Phenylacetic_acid

>  <logK_Dy_z=3.0_T=25_I=0.1>  (60) 
1.77

$$$$

     RDKit          2D

 11 11  0  0  0  0  0  0  0  0999 V2000
    5.2500   -1.2990    0.0000 C   0  0  0  0  0  0  0  0  0  0  0  0
    6.0000   -2.5981    0.0000 O   0  0  0  0  0  0  0  0  0  0  0  0
    3.7500   -1.2990    0.0000 C   0  0  0  0  0  0  0  0  0  0  0  0
    3.0000    0.0000    0.0000 C   0  0  0  0  0  0  0  0  0  0  0  0
    1.5000    0.0000    0.0000 C   0  0  0  0  0  0  0  0  0  0  0  0
    0.7500   -1.2990    0.0000 C   0  0  0  0  0  0  0  0  0  0  0  0
   -0.7500   -1.2990    0.0000 C   0  0  0  0  0  0  0  0  0  0  0  0
   -1.5000    0.0000    0.0000 C   0  0  0  0  0  0  0  0  0  0  0  0
   -0.7500    1.2990    0.0000 C   0  0  0  0  0  0  0  0  0  0  0  0
    0.7500    1.2990    0.0000 C   0  0  0  0  0  0  0  0  0  0  0  0
    6.0000    0.0000    0.0000 O   0  0  0  0  0  0  0  0  0  0  0  0
  1  2  1  0
  1  3  1  0
  3  4  1  0
  4  5  1  0
  5  6  2  0
  6  7  1  0
  7  8  2  0
  8  9  1  0
  9 10  2  0
  1 11  2  0
 10  5  1  0
M  END
>  <Name>  (61) 
3-Phenylpropanoic_acid_(Hydrocinnamic_acid)

>  <logK_Dy_z=3.0_T=25_I=0.1>  (61) 
1.96

$$$$

     RDKit          2D

  5  4  0  0  0  0  0  0  0  0999 V2000
    2.5981   -0.0000    0.0000 O   0  0  0  0  0  0  0  0  0  0  0  0
    1.2990    0.7500    0.0000 C   0  0  0  0  0  0  0  0  0  0  0  0
    0.0000    0.0000    0.0000 C   0  0  0  0  0  0  0  0  0  0  0  0
   -1.2990    0.7500    0.0000 Cl  0  0  0  0  0  0  0  0  0  0  0  0
    1.2990    2.2500    0.0000 O   0  0  0  0  0  0  0  0  0  0  0  0
  1  2  1  0
  2  3  1  0
  3  4  1  0
  2  5  2  0
M  END
>  <Name>  (62) 
Chloroacetic_acid

>  <logK_Dy_z=3.0_T=25_I=0.1>  (62) 
1.21

$$$$

     RDKit          2D

  5  4  0  0  0  0  0  0  0  0999 V2000
    1.2990    2.2500    0.0000 O   0  0  0  0  0  0  0  0  0  0  0  0
    1.2990    0.7500    0.0000 C   0  0  0  0  0  0  0  0  0  0  0  0
    0.0000    0.0000    0.0000 C   0  0  0  0  0  0  0  0  0  0  0  0
   -1.2990    0.7500    0.0000 I   0  0  0  0  0  0  0  0  0  0  0  0
    2.5981   -0.0000    0.0000 O   0  0  0  0  0  0  0  0  0  0  0  0
  1  2  2  0
  2  3  1  0
  3  4  1  0
  2  5  1  0
M  END
>  <Name>  (63) 
Iodoacetic_acid

>  <logK_Dy_z=3.0_T=25_I=0.1>  (63) 
1.11

$$$$

     RDKit          2D

 10 10  0  0  0  0  0  0  0  0999 V2000
    1.5000    0.0000    0.0000 C   0  0  0  0  0  0  0  0  0  0  0  0
    3.0000    0.0000    0.0000 C   0  0  0  0  0  0  0  0  0  0  0  0
    3.7500    1.2990    0.0000 O   0  0  0  0  0  0  0  0  0  0  0  0
    3.7500   -1.2990    0.0000 O   0  0  0  0  0  0  0  0  0  0  0  0
    0.7500   -1.2990    0.0000 C   0  0  0  0  0  0  0  0  0  0  0  0
   -0.7500   -1.2990    0.0000 C   0  0  0  0  0  0  0  0  0  0  0  0
   -1.5000    0.0000    0.0000 C   0  0  0  0  0  0  0  0  0  0  0  0
   -0.7500    1.2990    0.0000 C   0  0  0  0  0  0  0  0  0  0  0  0
   -1.5000    2.5981    0.0000 F   0  0  0  0  0  0  0  0  0  0  0  0
    0.7500    1.2990    0.0000 C   0  0  0  0  0  0  0  0  0  0  0  0
  1  2  1  0
  2  3  2  0
  2  4  1  0
  1  5  2  0
  5  6  1  0
  6  7  2  0
  7  8  1  0
  8  9  1  0
  8 10  2  0
 10  1  1  0
M  END
>  <Name>  (64) 
3-Fluorobenzoic_acid

>  <logK_Dy_z=3.0_T=25_I=0.1>  (64) 
1.73

$$$$

     RDKit          2D

 10 10  0  0  0  0  0  0  0  0999 V2000
    1.5000    0.0000    0.0000 C   0  0  0  0  0  0  0  0  0  0  0  0
    0.7500   -1.2990    0.0000 C   0  0  0  0  0  0  0  0  0  0  0  0
    1.5000   -2.5981    0.0000 C   0  0  0  0  0  0  0  0  0  0  0  0
    0.7500   -3.8971    0.0000 O   0  0  0  0  0  0  0  0  0  0  0  0
    3.0000   -2.5981    0.0000 O   0  0  0  0  0  0  0  0  0  0  0  0
   -0.7500   -1.2990    0.0000 C   0  0  0  0  0  0  0  0  0  0  0  0
   -1.5000    0.0000    0.0000 C   0  0  0  0  0  0  0  0  0  0  0  0
   -0.7500    1.2990    0.0000 C   0  0  0  0  0  0  0  0  0  0  0  0
   -1.5000    2.5981    0.0000 F   0  0  0  0  0  0  0  0  0  0  0  0
    0.7500    1.2990    0.0000 C   0  0  0  0  0  0  0  0  0  0  0  0
  1  2  2  0
  2  3  1  0
  3  4  1  0
  3  5  2  0
  2  6  1  0
  6  7  2  0
  7  8  1  0
  8  9  1  0
  8 10  2  0
 10  1  1  0
M  END
>  <Name>  (65) 
4-Fluorobenzoic_acid

>  <logK_Dy_z=3.0_T=25_I=0.1>  (65) 
1.89

$$$$

     RDKit          2D

 12 12  0  0  0  0  0  0  0  0999 V2000
    3.0000    0.0000    0.0000 C   0  0  0  0  0  0  0  0  0  0  0  0
    1.5000    0.0000    0.0000 C   0  0  0  0  0  0  0  0  0  0  0  0
    0.7500   -1.2990    0.0000 C   0  0  0  0  0  0  0  0  0  0  0  0
   -0.7500   -1.2990    0.0000 C   0  0  0  0  0  0  0  0  0  0  0  0
   -1.5000   -2.5981    0.0000 N   0  0  0  0  0  4  0  0  0  0  0  0
   -3.0000   -2.5981    0.0000 O   0  0  0  0  0  1  0  0  0  0  0  0
   -0.7500   -3.8971    0.0000 O   0  0  0  0  0  0  0  0  0  0  0  0
   -1.5000    0.0000    0.0000 C   0  0  0  0  0  0  0  0  0  0  0  0
   -0.7500    1.2990    0.0000 C   0  0  0  0  0  0  0  0  0  0  0  0
    0.7500    1.2990    0.0000 C   0  0  0  0  0  0  0  0  0  0  0  0
    3.7500   -1.2990    0.0000 O   0  0  0  0  0  0  0  0  0  0  0  0
    3.7500    1.2990    0.0000 O   0  0  0  0  0  0  0  0  0  0  0  0
  1  2  1  0
  2  3  2  0
  3  4  1  0
  4  5  1  0
  5  6  1  0
  5  7  2  0
  4  8  2  0
  8  9  1  0
  9 10  2  0
  1 11  1  0
  1 12  2  0
 10  2  1  0
M  CHG  2   5   1   6  -1
M  END
>  <Name>  (66) 
3-Nitrobenzoic_acid

>  <logK_Dy_z=3.0_T=25_I=0.1>  (66) 
1.62

$$$$

     RDKit          2D

  5  4  0  0  0  0  0  0  0  0999 V2000
    1.2990    0.7500    0.0000 C   0  0  0  0  0  0  0  0  0  0  0  0
    0.0000    0.0000    0.0000 C   0  0  0  0  0  0  0  0  0  0  0  0
   -1.2990    0.7500    0.0000 O   0  0  0  0  0  0  0  0  0  0  0  0
    2.5981   -0.0000    0.0000 O   0  0  0  0  0  0  0  0  0  0  0  0
    1.2990    2.2500    0.0000 O   0  0  0  0  0  0  0  0  0  0  0  0
  1  2  1  0
  2  3  1  0
  1  4  1  0
  1  5  2  0
M  END
>  <Name>  (67) 
Hydroxyacetic_acid_(Glycolic_acid)

>  <logK_Dy_z=3.0_T=20_I=0.1>  (67) 
2.92

>  <logK_Dy_z=3.0_T=25_I=1.0>  (67) 
2.48

>  <logK_Dy_z=3.0_T=25_I=2.0>  (67) 
2.5

$$$$

     RDKit          2D

  7  6  0  0  0  0  0  0  0  0999 V2000
    3.8971    0.7500    0.0000 C   0  0  0  0  0  0  0  0  0  0  0  0
    2.5981   -0.0000    0.0000 C   0  0  0  0  0  0  0  0  0  0  0  0
    2.5981   -1.5000    0.0000 O   0  0  0  0  0  0  0  0  0  0  0  0
    1.2990    0.7500    0.0000 C   0  0  0  0  0  0  0  0  0  0  0  0
    0.0000    0.0000    0.0000 C   0  0  0  0  0  0  0  0  0  0  0  0
    5.1962   -0.0000    0.0000 O   0  0  0  0  0  0  0  0  0  0  0  0
    3.8971    2.2500    0.0000 O   0  0  0  0  0  0  0  0  0  0  0  0
  1  2  1  0
  2  3  1  0
  2  4  1  0
  4  5  1  0
  1  6  1  0
  1  7  2  0
M  END
>  <Name>  (68) 
DL-2-Hydroxybutanoic_acid

>  <logK_Dy_z=3.0_T=25_I=0.1>  (68) 
2.9

$$$$

     RDKit          2D

  8  7  0  0  0  0  0  0  0  0999 V2000
    0.0000    0.0000    0.0000 C   0  0  0  0  0  0  0  0  0  0  0  0
    1.2990    0.7500    0.0000 C   0  0  0  0  0  0  0  0  0  0  0  0
    2.5981   -0.0000    0.0000 C   0  0  0  0  0  0  0  0  0  0  0  0
    3.8971    0.7500    0.0000 C   0  0  0  0  0  0  0  0  0  0  0  0
    5.1962   -0.0000    0.0000 C   0  0  0  0  0  0  0  0  0  0  0  0
    5.1962   -1.5000    0.0000 O   0  0  0  0  0  0  0  0  0  0  0  0
    6.4952    0.7500    0.0000 O   0  0  0  0  0  0  0  0  0  0  0  0
    3.8971    2.2500    0.0000 O   0  0  0  0  0  0  0  0  0  0  0  0
  1  2  1  0
  2  3  1  0
  3  4  1  0
  4  5  1  0
  5  6  2  0
  5  7  1  0
  4  8  1  0
M  END
>  <Name>  (69) 
DL-2-Hydroxypentanoic_acid

>  <logK_Dy_z=3.0_T=25_I=1.0>  (69) 
2.63

$$$$

     RDKit          2D

  8  7  0  0  0  0  0  0  0  0999 V2000
    2.5981    4.5000    0.0000 O   0  0  0  0  0  0  0  0  0  0  0  0
    2.5981    3.0000    0.0000 C   0  0  0  0  0  0  0  0  0  0  0  0
    3.8971    2.2500    0.0000 O   0  0  0  0  0  0  0  0  0  0  0  0
    1.2990    2.2500    0.0000 C   0  0  0  0  0  0  0  0  0  0  0  0
   -0.0000    3.0000    0.0000 O   0  0  0  0  0  0  0  0  0  0  0  0
    1.2990    0.7500    0.0000 C   0  0  0  0  0  0  0  0  0  0  0  0
    0.0000    0.0000    0.0000 C   0  0  0  0  0  0  0  0  0  0  0  0
    2.5981   -0.0000    0.0000 C   0  0  0  0  0  0  0  0  0  0  0  0
  1  2  1  0
  2  3  2  0
  2  4  1  0
  4  5  1  0
  4  6  1  0
  6  7  1  0
  6  8  1  0
M  END
>  <Name>  (70) 
DL-2-Hydroxy-3-methylbutanoic_acid

>  <logK_Dy_z=3.0_T=25_I=0.1>  (70) 
2.77

$$$$

     RDKit          2D

  9  8  0  0  0  0  0  0  0  0999 V2000
    1.2990    3.3481    0.0000 C   0  0  0  0  0  0  0  0  0  0  0  0
    2.7990    3.3481    0.0000 O   0  0  0  0  0  0  0  0  0  0  0  0
    0.5490    4.6471    0.0000 O   0  0  0  0  0  0  0  0  0  0  0  0
    0.5490    2.0490    0.0000 C   0  0  0  0  0  0  0  0  0  0  0  0
   -0.9510    2.0490    0.0000 O   0  0  0  0  0  0  0  0  0  0  0  0
    1.2990    0.7500    0.0000 C   0  0  0  0  0  0  0  0  0  0  0  0
    0.0000    0.0000    0.0000 C   0  0  0  0  0  0  0  0  0  0  0  0
    2.5981    1.5000    0.0000 C   0  0  0  0  0  0  0  0  0  0  0  0
    2.0490   -0.5490    0.0000 C   0  0  0  0  0  0  0  0  0  0  0  0
  1  2  2  0
  1  3  1  0
  1  4  1  0
  4  5  1  0
  4  6  1  0
  6  7  1  0
  6  8  1  0
  6  9  1  0
M  END
>  <Name>  (71) 
DL-2-Hydroxy-3,3-dimethylbutanoic_acid

>  <logK_Dy_z=3.0_T=25_I=0.1>  (71) 
2.7

$$$$

     RDKit          2D

  7  6  0  0  0  0  0  0  0  0999 V2000
    2.0490   -0.5490    0.0000 C   0  0  0  0  0  0  0  0  0  0  0  0
    1.2990    0.7500    0.0000 C   0  0  0  0  0  0  0  0  0  0  0  0
    0.5490    2.0490    0.0000 O   0  0  0  0  0  0  0  0  0  0  0  0
    0.0000    0.0000    0.0000 C   0  0  0  0  0  0  0  0  0  0  0  0
    2.5981    1.5000    0.0000 C   0  0  0  0  0  0  0  0  0  0  0  0
    3.5490   -0.5490    0.0000 O   0  0  0  0  0  0  0  0  0  0  0  0
    1.2990   -1.8481    0.0000 O   0  0  0  0  0  0  0  0  0  0  0  0
  1  2  1  0
  2  3  1  0
  2  4  1  0
  2  5  1  0
  1  6  1  0
  1  7  2  0
M  END
>  <Name>  (72) 
2-Hydroxy-2-methylpropanoic_acid

>  <logK_Dy_z=3.0_T=25_I=0.1>  (72) 
3.13

>  <logK_Dy_z=3.0_T=25_I=0.5>  (72) 
2.95

>  <logK_Dy_z=3.0_T=25_I=1.0>  (72) 
2.83

$$$$

     RDKit          2D

  9  8  0  0  0  0  0  0  0  0999 V2000
    1.8481   -1.2990    0.0000 O   0  0  0  0  0  0  0  0  0  0  0  0
    2.5981   -0.0000    0.0000 C   0  0  0  0  0  0  0  0  0  0  0  0
    3.3481    1.2990    0.0000 C   0  0  0  0  0  0  0  0  0  0  0  0
    2.5981    2.5981    0.0000 O   0  0  0  0  0  0  0  0  0  0  0  0
    4.8481    1.2990    0.0000 O   0  0  0  0  0  0  0  0  0  0  0  0
    1.2990    0.7500    0.0000 C   0  0  0  0  0  0  0  0  0  0  0  0
    0.0000    0.0000    0.0000 C   0  0  0  0  0  0  0  0  0  0  0  0
    3.8971   -0.7500    0.0000 C   0  0  0  0  0  0  0  0  0  0  0  0
    3.8971   -2.2500    0.0000 C   0  0  0  0  0  0  0  0  0  0  0  0
  1  2  1  0
  2  3  1  0
  3  4  2  0
  3  5  1  0
  2  6  1  0
  6  7  1  0
  2  8  1  0
  8  9  1  0
M  END
>  <Name>  (73) 
2-Hydroxy-2-ethylbutanoic_acid

>  <logK_Dy_z=3.0_T=25_I=0.1>  (73) 
3.1

$$$$

     RDKit          2D

 11 10  0  0  0  0  0  0  0  0999 V2000
    3.1471    2.0490    0.0000 O   0  0  0  0  0  0  0  0  0  0  0  0
    3.8971    0.7500    0.0000 C   0  0  0  0  0  0  0  0  0  0  0  0
    4.6471   -0.5490    0.0000 C   0  0  0  0  0  0  0  0  0  0  0  0
    3.8971   -1.8481    0.0000 O   0  0  0  0  0  0  0  0  0  0  0  0
    6.1471   -0.5490    0.0000 O   0  0  0  0  0  0  0  0  0  0  0  0
    2.5981   -0.0000    0.0000 C   0  0  0  0  0  0  0  0  0  0  0  0
    1.2990    0.7500    0.0000 C   0  0  0  0  0  0  0  0  0  0  0  0
    0.0000    0.0000    0.0000 C   0  0  0  0  0  0  0  0  0  0  0  0
    5.1962    1.5000    0.0000 C   0  0  0  0  0  0  0  0  0  0  0  0
    5.1962    3.0000    0.0000 C   0  0  0  0  0  0  0  0  0  0  0  0
    6.4952    3.7500    0.0000 C   0  0  0  0  0  0  0  0  0  0  0  0
  1  2  1  0
  2  3  1  0
  3  4  2  0
  3  5  1  0
  2  6  1  0
  6  7  1  0
  7  8  1  0
  2  9  1  0
  9 10  1  0
 10 11  1  0
M  END
>  <Name>  (74) 
2-Hydroxy-2-propylpentanoic_acid

>  <logK_Dy_z=3.0_T=25_I=1.0>  (74) 
3.08

$$$$

     RDKit          2D

  9  9  0  0  0  0  0  0  0  0999 V2000
    2.0788    2.4709    0.0000 O   0  0  0  0  0  0  0  0  0  0  0  0
    2.3907    1.0037    0.0000 C   0  0  0  0  0  0  0  0  0  0  0  0
    1.2760    0.0000    0.0000 C   0  0  0  0  0  0  0  0  0  0  0  0
    0.3943    1.2135    0.0000 C   0  0  0  0  0  0  0  0  0  0  0  0
   -1.0323    0.7500    0.0000 C   0  0  0  0  0  0  0  0  0  0  0  0
   -1.0323   -0.7500    0.0000 C   0  0  0  0  0  0  0  0  0  0  0  0
    0.3943   -1.2135    0.0000 C   0  0  0  0  0  0  0  0  0  0  0  0
    2.3907   -1.0037    0.0000 O   0  0  0  0  0  0  0  0  0  0  0  0
    3.8173    0.5402    0.0000 O   0  0  0  0  0  0  0  0  0  0  0  0
  1  2  2  0
  2  3  1  0
  3  4  1  0
  4  5  1  0
  5  6  1  0
  6  7  1  0
  3  8  1  0
  2  9  1  0
  7  3  1  0
M  END
>  <Name>  (75) 
1-Hydroxycyclopentanecarboxylic_acid

>  <logK_Dy_z=3.0_T=25_I=0.1>  (75) 
2.98

$$$$

     RDKit          2D

 10 10  0  0  0  0  0  0  0  0999 V2000
    2.6491   -0.9642    0.0000 O   0  0  0  0  0  0  0  0  0  0  0  0
    1.5000    0.0000    0.0000 C   0  0  0  0  0  0  0  0  0  0  0  0
    2.6491    0.9642    0.0000 C   0  0  0  0  0  0  0  0  0  0  0  0
    2.3886    2.4414    0.0000 O   0  0  0  0  0  0  0  0  0  0  0  0
    4.0586    0.4512    0.0000 O   0  0  0  0  0  0  0  0  0  0  0  0
    0.7500   -1.2990    0.0000 C   0  0  0  0  0  0  0  0  0  0  0  0
   -0.7500   -1.2990    0.0000 C   0  0  0  0  0  0  0  0  0  0  0  0
   -1.5000    0.0000    0.0000 C   0  0  0  0  0  0  0  0  0  0  0  0
   -0.7500    1.2990    0.0000 C   0  0  0  0  0  0  0  0  0  0  0  0
    0.7500    1.2990    0.0000 C   0  0  0  0  0  0  0  0  0  0  0  0
  1  2  1  0
  2  3  1  0
  3  4  2  0
  3  5  1  0
  2  6  1  0
  6  7  1  0
  7  8  1  0
  8  9  1  0
  9 10  1  0
 10  2  1  0
M  END
>  <Name>  (76) 
1-Hydroxycyclohexanecarboxylic_acid

>  <logK_Dy_z=3.0_T=25_I=0.1>  (76) 
2.53

>  <logK_Dy_z=3.0_T=25_I=1.0>  (76) 
2.43

$$$$

     RDKit          2D

 11 11  0  0  0  0  0  0  0  0999 V2000
    1.5000    0.0000    0.0000 C   0  0  0  0  0  0  0  0  0  0  0  0
    0.7500   -1.2990    0.0000 C   0  0  0  0  0  0  0  0  0  0  0  0
   -0.7500   -1.2990    0.0000 C   0  0  0  0  0  0  0  0  0  0  0  0
   -1.5000   -2.5981    0.0000 C   0  0  0  0  0  0  0  0  0  0  0  0
   -3.0000   -2.5981    0.0000 C   0  0  0  0  0  0  0  0  0  0  0  0
   -3.7500   -3.8971    0.0000 O   0  0  0  0  0  0  0  0  0  0  0  0
   -3.7500   -1.2990    0.0000 O   0  0  0  0  0  0  0  0  0  0  0  0
   -0.7500   -3.8971    0.0000 O   0  0  0  0  0  0  0  0  0  0  0  0
   -1.5000    0.0000    0.0000 C   0  0  0  0  0  0  0  0  0  0  0  0
   -0.7500    1.2990    0.0000 C   0  0  0  0  0  0  0  0  0  0  0  0
    0.7500    1.2990    0.0000 C   0  0  0  0  0  0  0  0  0  0  0  0
  1  2  2  0
  2  3  1  0
  3  4  1  0
  4  5  1  0
  5  6  1  0
  5  7  2  0
  4  8  1  0
  3  9  2  0
  9 10  1  0
 10 11  2  0
 11  1  1  0
M  END
>  <Name>  (77) 
L-Phenyl(hydroxy)acetic_acid_(Mandelic_acid)

>  <logK_Dy_z=3.0_T=25_I=0.1>  (77) 
2.6

>  <logK_Dy_z=3.0_T=25_I=2.0>  (77) 
2.57

$$$$

     RDKit          2D

  9  8  0  0  0  0  0  0  0  0999 V2000
    0.5490    2.0490    0.0000 O   0  0  0  0  0  0  0  0  0  0  0  0
    1.2990    0.7500    0.0000 C   0  0  0  0  0  0  0  0  0  0  0  0
    2.0490   -0.5490    0.0000 C   0  0  0  0  0  0  0  0  0  0  0  0
    1.2990   -1.8481    0.0000 O   0  0  0  0  0  0  0  0  0  0  0  0
    3.5490   -0.5490    0.0000 O   0  0  0  0  0  0  0  0  0  0  0  0
    0.0000    0.0000    0.0000 C   0  0  0  0  0  0  0  0  0  0  0  0
    2.5981    1.5000    0.0000 C   0  0  0  0  0  0  0  0  0  0  0  0
    2.5981    3.0000    0.0000 C   0  0  0  0  0  0  0  0  0  0  0  0
    3.8971    0.7500    0.0000 O   0  0  0  0  0  0  0  0  0  0  0  0
  1  2  1  0
  2  3  1  0
  3  4  2  0
  3  5  1  0
  2  6  1  0
  2  7  1  0
  7  8  1  0
  7  9  1  0
M  END
>  <Name>  (78) 
DL-2,3-Dihydroxy-2-methylbutanoic_acid

>  <logK_Dy_z=3.0_T=25_I=0.1>  (78) 
3.0

>  <logK_Dy_z=3.0_T=25_I=0.5>  (78) 
2.85

$$$$

     RDKit          2D

  9  8  0  0  0  0  0  0  0  0999 V2000
    0.5490    2.0490    0.0000 O   0  0  0  0  0  0  0  0  0  0  0  0
    1.2990    0.7500    0.0000 C   0  0  0  0  0  0  0  0  0  0  0  0
    2.0490   -0.5490    0.0000 C   0  0  0  0  0  0  0  0  0  0  0  0
    1.2990   -1.8481    0.0000 O   0  0  0  0  0  0  0  0  0  0  0  0
    3.5490   -0.5490    0.0000 O   0  0  0  0  0  0  0  0  0  0  0  0
    0.0000    0.0000    0.0000 C   0  0  0  0  0  0  0  0  0  0  0  0
   -1.2990    0.7500    0.0000 O   0  0  0  0  0  0  0  0  0  0  0  0
    2.5981    1.5000    0.0000 C   0  0  0  0  0  0  0  0  0  0  0  0
    2.5981    3.0000    0.0000 O   0  0  0  0  0  0  0  0  0  0  0  0
  1  2  1  0
  2  3  1  0
  3  4  2  0
  3  5  1  0
  2  6  1  0
  6  7  1  0
  2  8  1  0
  8  9  1  0
M  END
>  <Name>  (79) 
2,3-Dihydroxy-2-(hydroxymethyl)propanoic_acid

>  <logK_Dy_z=3.0_T=25_I=0.1>  (79) 
3.03

>  <logK_Dy_z=3.0_T=25_I=0.5>  (79) 
2.66

$$$$

     RDKit          2D

 13 12  0  0  0  0  0  0  0  0999 V2000
    3.8971    0.7500    0.0000 C   0  0  0  0  0  0  0  0  0  0  0  0
    3.8971    2.2500    0.0000 O   0  0  0  0  0  0  0  0  0  0  0  0
    5.1962   -0.0000    0.0000 C   0  0  0  0  0  0  0  0  0  0  0  0
    5.1962   -1.5000    0.0000 O   0  0  0  0  0  0  0  0  0  0  0  0
    6.4952    0.7500    0.0000 C   0  0  0  0  0  0  0  0  0  0  0  0
    6.4952    2.2500    0.0000 O   0  0  0  0  0  0  0  0  0  0  0  0
    7.7942   -0.0000    0.0000 O   0  0  0  0  0  0  0  0  0  0  0  0
    2.5981   -0.0000    0.0000 C   0  0  0  0  0  0  0  0  0  0  0  0
    2.5981   -1.5000    0.0000 O   0  0  0  0  0  0  0  0  0  0  0  0
    1.2990    0.7500    0.0000 C   0  0  0  0  0  0  0  0  0  0  0  0
    1.2990    2.2500    0.0000 O   0  0  0  0  0  0  0  0  0  0  0  0
    0.0000    0.0000    0.0000 C   0  0  0  0  0  0  0  0  0  0  0  0
   -1.2990    0.7500    0.0000 O   0  0  0  0  0  0  0  0  0  0  0  0
  1  2  1  6
  1  3  1  0
  3  4  1  6
  3  5  1  0
  5  6  2  0
  5  7  1  0
  1  8  1  0
  8  9  1  6
  8 10  1  0
 10 11  1  1
 10 12  1  0
 12 13  1  0
M  END
>  <Name>  (80) 
D-gluco-Pentahydroxyhexanoic_acid_(D-Gluconic_acid)

>  <logK_Dy_z=3.0_T=25_I=0.1>  (80) 
2.4

$$$$

     RDKit          2D

 13 13  0  0  0  0  0  0  0  0999 V2000
    1.5000    0.0000    0.0000 C   0  0  0  0  0  0  0  0  0  0  0  0
    0.7500   -1.2990    0.0000 C   0  0  0  0  0  0  0  0  0  0  0  0
    0.4895   -2.7762    0.0000 O   0  0  0  0  0  0  0  0  0  0  0  0
    2.1595   -1.8121    0.0000 C   0  0  0  0  0  0  0  0  0  0  0  0
    2.4200   -3.2893    0.0000 O   0  0  0  0  0  1  0  0  0  0  0  0
    3.3086   -0.8479    0.0000 O   0  0  0  0  0  0  0  0  0  0  0  0
   -0.7500   -1.2990    0.0000 C   0  0  0  0  0  0  0  0  0  0  0  0
   -1.5000    0.0000    0.0000 C   0  0  0  0  0  0  0  0  0  0  0  0
   -3.0000    0.0000    0.0000 O   0  0  0  0  0  0  0  0  0  0  0  0
   -0.7500    1.2990    0.0000 C   0  0  0  0  0  0  0  0  0  0  0  0
   -1.5000    2.5981    0.0000 O   0  0  0  0  0  0  0  0  0  0  0  0
    0.7500    1.2990    0.0000 C   0  0  0  0  0  0  0  0  0  0  0  0
    1.5000    2.5981    0.0000 O   0  0  0  0  0  0  0  0  0  0  0  0
  1  2  1  0
  2  3  1  0
  2  4  1  0
  4  5  1  0
  4  6  2  0
  2  7  1  0
  7  8  1  0
  8  9  1  1
  8 10  1  0
 10 11  1  0
 10 12  1  0
 12 13  1  6
 12  1  1  0
M  CHG  1   5  -1
M  END
>  <Name>  (81) 
(1R,3R,4R,5R)-(-)-1,3,4,5-Tetrahydroxcyclohexanecarboxylic_acid_(Quinic_acid)

>  <logK_Dy_z=3.0_T=25_I=0.1>  (81) 
2.74

>  <logK_Dy_z=3.0_T=25_I=1.0>  (81) 
2.47

$$$$

     RDKit          2D

  6  5  0  0  0  0  0  0  0  0999 V2000
   -1.2990    0.7500    0.0000 O   0  0  0  0  0  0  0  0  0  0  0  0
    0.0000    0.0000    0.0000 C   0  0  0  0  0  0  0  0  0  0  0  0
    1.2990    0.7500    0.0000 C   0  0  0  0  0  0  0  0  0  0  0  0
    2.5981   -0.0000    0.0000 C   0  0  0  0  0  0  0  0  0  0  0  0
    2.5981   -1.5000    0.0000 O   0  0  0  0  0  0  0  0  0  0  0  0
    3.8971    0.7500    0.0000 O   0  0  0  0  0  0  0  0  0  0  0  0
  1  2  1  0
  2  3  1  0
  3  4  1  0
  4  5  2  0
  4  6  1  0
M  END
>  <Name>  (82) 
3-Hydroxypropanoic_acid

>  <logK_Dy_z=3.0_T=25_I=0.1>  (82) 
2.03

>  <logK_Dy_z=3.0_T=25_I=2.0>  (82) 
1.45

$$$$

     RDKit          2D

  9  8  0  0  0  0  0  0  0  0999 V2000
    0.5490    2.0490    0.0000 C   0  0  0  0  0  0  0  0  0  0  0  0
   -0.9510    2.0490    0.0000 O   0  0  0  0  0  0  0  0  0  0  0  0
    1.2990    3.3481    0.0000 O   0  0  0  0  0  0  0  0  0  0  0  0
    1.2990    0.7500    0.0000 C   0  0  0  0  0  0  0  0  0  0  0  0
    0.0000    0.0000    0.0000 C   0  0  0  0  0  0  0  0  0  0  0  0
    2.5981    1.5000    0.0000 C   0  0  0  0  0  0  0  0  0  0  0  0
    2.5981    3.0000    0.0000 O   0  0  0  0  0  0  0  0  0  0  0  0
    2.0490   -0.5490    0.0000 C   0  0  0  0  0  0  0  0  0  0  0  0
    3.5490   -0.5490    0.0000 O   0  0  0  0  0  0  0  0  0  0  0  0
  1  2  2  0
  1  3  1  0
  1  4  1  0
  4  5  1  0
  4  6  1  0
  6  7  1  0
  4  8  1  0
  8  9  1  0
M  END
>  <Name>  (83) 
2,2-Bis(hydroxymethyl)propanoic_acid

>  <logK_Dy_z=3.0_T=25_I=0.1>  (83) 
2.3

$$$$

     RDKit          2D

  5  4  0  0  0  0  0  0  0  0999 V2000
    1.2990    2.2500    0.0000 O   0  0  0  0  0  0  0  0  0  0  0  0
    1.2990    0.7500    0.0000 C   0  0  0  0  0  0  0  0  0  0  0  0
    0.0000    0.0000    0.0000 C   0  0  0  0  0  0  0  0  0  0  0  0
   -1.2990    0.7500    0.0000 O   0  0  0  0  0  0  0  0  0  0  0  0
    2.5981   -0.0000    0.0000 O   0  0  0  0  0  0  0  0  0  0  0  0
  1  2  2  0
  2  3  1  0
  3  4  2  0
  2  5  1  0
M  END
>  <Name>  (84) 
Oxoacetic_acid_(Glyoxylic_acid)

>  <logK_Dy_z=3.0_T=20_I=0.1>  (84) 
2.56

$$$$

     RDKit          2D

  6  5  0  0  0  0  0  0  0  0999 V2000
    0.0000    0.0000    0.0000 C   0  0  0  0  0  0  0  0  0  0  0  0
    1.2990    0.7500    0.0000 C   0  0  0  0  0  0  0  0  0  0  0  0
    1.2990    2.2500    0.0000 O   0  0  0  0  0  0  0  0  0  0  0  0
    2.5981   -0.0000    0.0000 C   0  0  0  0  0  0  0  0  0  0  0  0
    2.5981   -1.5000    0.0000 O   0  0  0  0  0  0  0  0  0  0  0  0
    3.8971    0.7500    0.0000 O   0  0  0  0  0  0  0  0  0  0  0  0
  1  2  1  0
  2  3  2  0
  2  4  1  0
  4  5  2  0
  4  6  1  0
M  END
>  <Name>  (85) 
2-Oxopropanoic_acid_(Pyruvic_acid)

>  <logK_Dy_z=3.0_T=25_I=2.0>  (85) 
1.27

$$$$

     RDKit          2D

  6  5  0  0  0  0  0  0  0  0999 V2000
    3.8971    0.7500    0.0000 C   0  0  0  0  0  0  0  0  0  0  0  0
    2.5981   -0.0000    0.0000 C   0  0  0  0  0  0  0  0  0  0  0  0
    1.2990    0.7500    0.0000 O   0  0  0  0  0  0  0  0  0  0  0  0
    0.0000    0.0000    0.0000 C   0  0  0  0  0  0  0  0  0  0  0  0
    5.1962   -0.0000    0.0000 O   0  0  0  0  0  0  0  0  0  0  0  0
    3.8971    2.2500    0.0000 O   0  0  0  0  0  0  0  0  0  0  0  0
  1  2  1  0
  2  3  1  0
  3  4  1  0
  1  5  1  0
  1  6  2  0
M  END
>  <Name>  (86) 
Methoxyacetic_acid

>  <logK_Dy_z=3.0_T=20_I=0.1>  (86) 
2.05

$$$$

     RDKit          2D

  8  8  0  0  0  0  0  0  0  0999 V2000
    1.2760    0.0000    0.0000 C   0  0  0  0  0  0  0  0  0  0  0  0
    0.3943    1.2135    0.0000 C   0  0  0  0  0  0  0  0  0  0  0  0
   -1.0323    0.7500    0.0000 C   0  0  0  0  0  0  0  0  0  0  0  0
   -1.0323   -0.7500    0.0000 C   0  0  0  0  0  0  0  0  0  0  0  0
    0.3943   -1.2135    0.0000 O   0  0  0  0  0  0  0  0  0  0  0  0
    2.7760    0.0000    0.0000 C   0  0  0  0  0  0  0  0  0  0  0  0
    3.5260   -1.2990    0.0000 O   0  0  0  0  0  0  0  0  0  0  0  0
    3.5260    1.2990    0.0000 O   0  0  0  0  0  0  0  0  0  0  0  0
  1  2  2  0
  2  3  1  0
  3  4  2  0
  4  5  1  0
  1  6  1  0
  6  7  1  0
  6  8  2  0
  5  1  1  0
M  END
>  <Name>  (87) 
Oxole-2-carboxylic_acid_(2-Furoic_acid)

>  <logK_Dy_z=3.0_T=25_I=2.0>  (87) 
1.51

$$$$

     RDKit          2D

 11 11  0  0  0  0  0  0  0  0999 V2000
    3.7500    1.2990    0.0000 C   0  0  0  0  0  0  0  0  0  0  0  0
    3.0000    0.0000    0.0000 O   0  0  0  0  0  0  0  0  0  0  0  0
    1.5000    0.0000    0.0000 C   0  0  0  0  0  0  0  0  0  0  0  0
    0.7500   -1.2990    0.0000 C   0  0  0  0  0  0  0  0  0  0  0  0
    1.5000   -2.5981    0.0000 C   0  0  0  0  0  0  0  0  0  0  0  0
    0.7500   -3.8971    0.0000 O   0  0  0  0  0  0  0  0  0  0  0  0
    3.0000   -2.5981    0.0000 O   0  0  0  0  0  0  0  0  0  0  0  0
   -0.7500   -1.2990    0.0000 C   0  0  0  0  0  0  0  0  0  0  0  0
   -1.5000    0.0000    0.0000 C   0  0  0  0  0  0  0  0  0  0  0  0
   -0.7500    1.2990    0.0000 C   0  0  0  0  0  0  0  0  0  0  0  0
    0.7500    1.2990    0.0000 C   0  0  0  0  0  0  0  0  0  0  0  0
  1  2  1  0
  2  3  1  0
  3  4  2  0
  4  5  1  0
  5  6  1  0
  5  7  2  0
  4  8  1  0
  8  9  2  0
  9 10  1  0
 10 11  2  0
 11  3  1  0
M  END
>  <Name>  (88) 
2-Methoxybenzoic_acid

>  <logK_Dy_z=3.0_T=25_I=0.1>  (88) 
1.89

$$$$

     RDKit          2D

 11 11  0  0  0  0  0  0  0  0999 V2000
    3.7500   -1.2990    0.0000 C   0  0  0  0  0  0  0  0  0  0  0  0
    3.0000    0.0000    0.0000 O   0  0  0  0  0  0  0  0  0  0  0  0
    1.5000    0.0000    0.0000 C   0  0  0  0  0  0  0  0  0  0  0  0
    0.7500   -1.2990    0.0000 C   0  0  0  0  0  0  0  0  0  0  0  0
   -0.7500   -1.2990    0.0000 C   0  0  0  0  0  0  0  0  0  0  0  0
   -1.5000   -2.5981    0.0000 C   0  0  0  0  0  0  0  0  0  0  0  0
   -3.0000   -2.5981    0.0000 O   0  0  0  0  0  0  0  0  0  0  0  0
   -0.7500   -3.8971    0.0000 O   0  0  0  0  0  0  0  0  0  0  0  0
   -1.5000    0.0000    0.0000 C   0  0  0  0  0  0  0  0  0  0  0  0
   -0.7500    1.2990    0.0000 C   0  0  0  0  0  0  0  0  0  0  0  0
    0.7500    1.2990    0.0000 C   0  0  0  0  0  0  0  0  0  0  0  0
  1  2  1  0
  2  3  1  0
  3  4  2  0
  4  5  1  0
  5  6  1  0
  6  7  1  0
  6  8  2  0
  5  9  2  0
  9 10  1  0
 10 11  2  0
 11  3  1  0
M  END
>  <Name>  (89) 
3-Methoxybenzoic_acid

>  <logK_Dy_z=3.0_T=25_I=0.1>  (89) 
2.01

$$$$

     RDKit          2D

 11 11  0  0  0  0  0  0  0  0999 V2000
    3.7500   -1.2990    0.0000 C   0  0  0  0  0  0  0  0  0  0  0  0
    3.0000    0.0000    0.0000 O   0  0  0  0  0  0  0  0  0  0  0  0
    1.5000    0.0000    0.0000 C   0  0  0  0  0  0  0  0  0  0  0  0
    0.7500   -1.2990    0.0000 C   0  0  0  0  0  0  0  0  0  0  0  0
   -0.7500   -1.2990    0.0000 C   0  0  0  0  0  0  0  0  0  0  0  0
   -1.5000    0.0000    0.0000 C   0  0  0  0  0  0  0  0  0  0  0  0
   -3.0000    0.0000    0.0000 C   0  0  0  0  0  0  0  0  0  0  0  0
   -3.7500    1.2990    0.0000 O   0  0  0  0  0  0  0  0  0  0  0  0
   -3.7500   -1.2990    0.0000 O   0  0  0  0  0  0  0  0  0  0  0  0
   -0.7500    1.2990    0.0000 C   0  0  0  0  0  0  0  0  0  0  0  0
    0.7500    1.2990    0.0000 C   0  0  0  0  0  0  0  0  0  0  0  0
  1  2  1  0
  2  3  1  0
  3  4  2  0
  4  5  1  0
  5  6  2  0
  6  7  1  0
  7  8  1  0
  7  9  2  0
  6 10  1  0
 10 11  2  0
 11  3  1  0
M  END
>  <Name>  (90) 
4-Methoxybenzoic_acid_(p-Anisic_acid)

>  <logK_Dy_z=3.0_T=25_I=0.1>  (90) 
2.0

$$$$

     RDKit          2D

  7  6  0  0  0  0  0  0  0  0999 V2000
    1.2990    2.2500    0.0000 O   0  0  0  0  0  0  0  0  0  0  0  0
    1.2990    0.7500    0.0000 C   0  0  0  0  0  0  0  0  0  0  0  0
    0.0000    0.0000    0.0000 C   0  0  0  0  0  0  0  0  0  0  0  0
   -1.2990    0.7500    0.0000 C   0  0  0  0  0  0  0  0  0  0  0  0
   -1.2990    2.2500    0.0000 O   0  0  0  0  0  0  0  0  0  0  0  0
   -2.5981    0.0000    0.0000 O   0  0  0  0  0  0  0  0  0  0  0  0
    2.5981   -0.0000    0.0000 O   0  0  0  0  0  0  0  0  0  0  0  0
  1  2  2  0
  2  3  1  0
  3  4  1  0
  4  5  2  0
  4  6  1  0
  2  7  1  0
M  END
>  <Name>  (91) 
Propanedioic_acid_(Malonic_acid)

>  <logK_Dy_z=3.0_T=25_I=0.1>  (91) 
4.47

>  <logK_Dy_z=3.0_T=25_I=1.0>  (91) 
3.85

$$$$

     RDKit          2D

  8  7  0  0  0  0  0  0  0  0999 V2000
    3.8971    0.7500    0.0000 O   0  0  0  0  0  0  0  0  0  0  0  0
    2.5981   -0.0000    0.0000 C   0  0  0  0  0  0  0  0  0  0  0  0
    1.2990    0.7500    0.0000 C   0  0  0  0  0  0  0  0  0  0  0  0
    1.2990    2.2500    0.0000 C   0  0  0  0  0  0  0  0  0  0  0  0
   -0.0000    3.0000    0.0000 O   0  0  0  0  0  0  0  0  0  0  0  0
    2.5981    3.0000    0.0000 O   0  0  0  0  0  0  0  0  0  0  0  0
    0.0000    0.0000    0.0000 C   0  0  0  0  0  0  0  0  0  0  0  0
    2.5981   -1.5000    0.0000 O   0  0  0  0  0  0  0  0  0  0  0  0
  1  2  1  0
  2  3  1  0
  3  4  1  0
  4  5  2  0
  4  6  1  0
  3  7  1  0
  2  8  2  0
M  END
>  <Name>  (92) 
Ethane-1,1-dicarboxylic_acid_(Methylmalonic_acid)

>  <logK_Dy_z=3.0_T=25_I=0.1>  (92) 
4.36

$$$$

     RDKit          2D

  9  8  0  0  0  0  0  0  0  0999 V2000
    5.1962   -0.0000    0.0000 O   0  0  0  0  0  0  0  0  0  0  0  0
    3.8971    0.7500    0.0000 C   0  0  0  0  0  0  0  0  0  0  0  0
    2.5981   -0.0000    0.0000 C   0  0  0  0  0  0  0  0  0  0  0  0
    2.5981   -1.5000    0.0000 C   0  0  0  0  0  0  0  0  0  0  0  0
    1.2990   -2.2500    0.0000 O   0  0  0  0  0  0  0  0  0  0  0  0
    3.8971   -2.2500    0.0000 O   0  0  0  0  0  0  0  0  0  0  0  0
    1.2990    0.7500    0.0000 C   0  0  0  0  0  0  0  0  0  0  0  0
    0.0000    0.0000    0.0000 C   0  0  0  0  0  0  0  0  0  0  0  0
    3.8971    2.2500    0.0000 O   0  0  0  0  0  0  0  0  0  0  0  0
  1  2  1  0
  2  3  1  0
  3  4  1  0
  4  5  2  0
  4  6  1  0
  3  7  1  0
  7  8  1  0
  2  9  2  0
M  END
>  <Name>  (93) 
Propane-1,1-dicarboxylic_acid_(Ethylmalonic_acid)

>  <logK_Dy_z=3.0_T=25_I=0.1>  (93) 
4.45

$$$$

     RDKit          2D

 10  9  0  0  0  0  0  0  0  0999 V2000
    6.4952    0.7500    0.0000 O   0  0  0  0  0  0  0  0  0  0  0  0
    5.1962   -0.0000    0.0000 C   0  0  0  0  0  0  0  0  0  0  0  0
    3.8971    0.7500    0.0000 C   0  0  0  0  0  0  0  0  0  0  0  0
    3.8971    2.2500    0.0000 C   0  0  0  0  0  0  0  0  0  0  0  0
    2.5981    3.0000    0.0000 O   0  0  0  0  0  0  0  0  0  0  0  0
    5.1962    3.0000    0.0000 O   0  0  0  0  0  0  0  0  0  0  0  0
    2.5981   -0.0000    0.0000 C   0  0  0  0  0  0  0  0  0  0  0  0
    1.2990    0.7500    0.0000 C   0  0  0  0  0  0  0  0  0  0  0  0
    0.0000    0.0000    0.0000 C   0  0  0  0  0  0  0  0  0  0  0  0
    5.1962   -1.5000    0.0000 O   0  0  0  0  0  0  0  0  0  0  0  0
  1  2  1  0
  2  3  1  0
  3  4  1  0
  4  5  2  0
  4  6  1  0
  3  7  1  0
  7  8  1  0
  8  9  1  0
  2 10  2  0
M  END
>  <Name>  (94) 
Butane-1,1-dicarboxylic_acid_(Propylmalonic_acid)

>  <logK_Dy_z=3.0_T=25_I=0.1>  (94) 
4.48

$$$$

     RDKit          2D

 11 10  0  0  0  0  0  0  0  0999 V2000
    0.0000    0.0000    0.0000 C   0  0  0  0  0  0  0  0  0  0  0  0
    1.2990    0.7500    0.0000 C   0  0  0  0  0  0  0  0  0  0  0  0
    2.5981   -0.0000    0.0000 C   0  0  0  0  0  0  0  0  0  0  0  0
    3.8971    0.7500    0.0000 C   0  0  0  0  0  0  0  0  0  0  0  0
    5.1962   -0.0000    0.0000 C   0  0  0  0  0  0  0  0  0  0  0  0
    6.4952    0.7500    0.0000 C   0  0  0  0  0  0  0  0  0  0  0  0
    6.4952    2.2500    0.0000 O   0  0  0  0  0  0  0  0  0  0  0  0
    7.7942   -0.0000    0.0000 O   0  0  0  0  0  0  0  0  0  0  0  0
    5.1962   -1.5000    0.0000 C   0  0  0  0  0  0  0  0  0  0  0  0
    3.8971   -2.2500    0.0000 O   0  0  0  0  0  0  0  0  0  0  0  0
    6.4952   -2.2500    0.0000 O   0  0  0  0  0  0  0  0  0  0  0  0
  1  2  1  0
  2  3  1  0
  3  4  1  0
  4  5  1  0
  5  6  1  0
  6  7  2  0
  6  8  1  0
  5  9  1  0
  9 10  2  0
  9 11  1  0
M  END
>  <Name>  (95) 
Pentane-1,1-dicarboxylic_acid_(Butylmalonic_acid)

>  <logK_Dy_z=3.0_T=25_I=0.1>  (95) 
4.41

$$$$

     RDKit          2D

 12 11  0  0  0  0  0  0  0  0999 V2000
    9.0933    0.7500    0.0000 O   0  0  0  0  0  0  0  0  0  0  0  0
    7.7942   -0.0000    0.0000 C   0  0  0  0  0  0  0  0  0  0  0  0
    6.4952    0.7500    0.0000 C   0  0  0  0  0  0  0  0  0  0  0  0
    6.4952    2.2500    0.0000 C   0  0  0  0  0  0  0  0  0  0  0  0
    5.1962    3.0000    0.0000 O   0  0  0  0  0  0  0  0  0  0  0  0
    7.7942    3.0000    0.0000 O   0  0  0  0  0  0  0  0  0  0  0  0
    5.1962   -0.0000    0.0000 C   0  0  0  0  0  0  0  0  0  0  0  0
    3.8971    0.7500    0.0000 C   0  0  0  0  0  0  0  0  0  0  0  0
    2.5981   -0.0000    0.0000 C   0  0  0  0  0  0  0  0  0  0  0  0
    1.2990    0.7500    0.0000 C   0  0  0  0  0  0  0  0  0  0  0  0
    0.0000    0.0000    0.0000 C   0  0  0  0  0  0  0  0  0  0  0  0
    7.7942   -1.5000    0.0000 O   0  0  0  0  0  0  0  0  0  0  0  0
  1  2  1  0
  2  3  1  0
  3  4  1  0
  4  5  2  0
  4  6  1  0
  3  7  1  0
  7  8  1  0
  8  9  1  0
  9 10  1  0
 10 11  1  0
  2 12  2  0
M  END
>  <Name>  (96) 
Hexane-1,1-dicarboxylic_acid_(Pentylmalonic_acid)

>  <logK_Dy_z=3.0_T=25_I=0.1>  (96) 
4.49

$$$$

     RDKit          2D

  9  8  0  0  0  0  0  0  0  0999 V2000
    1.2990    0.7500    0.0000 C   0  0  0  0  0  0  0  0  0  0  0  0
    0.0000    0.0000    0.0000 C   0  0  0  0  0  0  0  0  0  0  0  0
    2.5981    1.5000    0.0000 C   0  0  0  0  0  0  0  0  0  0  0  0
    2.0490   -0.5490    0.0000 C   0  0  0  0  0  0  0  0  0  0  0  0
    1.2990   -1.8481    0.0000 O   0  0  0  0  0  0  0  0  0  0  0  0
    3.5490   -0.5490    0.0000 O   0  0  0  0  0  0  0  0  0  0  0  0
    0.5490    2.0490    0.0000 C   0  0  0  0  0  0  0  0  0  0  0  0
   -0.9510    2.0490    0.0000 O   0  0  0  0  0  0  0  0  0  0  0  0
    1.2990    3.3481    0.0000 O   0  0  0  0  0  0  0  0  0  0  0  0
  1  2  1  0
  1  3  1  0
  1  4  1  0
  4  5  2  0
  4  6  1  0
  1  7  1  0
  7  8  2  0
  7  9  1  0
M  END
>  <Name>  (97) 
Propane-2,2-dicarboxylic_acid_(Dimethylmalonic_acid)

>  <logK_Dy_z=3.0_T=25_I=0.1>  (97) 
4.23

$$$$

     RDKit          2D

 11 10  0  0  0  0  0  0  0  0999 V2000
    2.5981    2.5981    0.0000 O   0  0  0  0  0  0  0  0  0  0  0  0
    3.3481    1.2990    0.0000 C   0  0  0  0  0  0  0  0  0  0  0  0
    2.5981   -0.0000    0.0000 C   0  0  0  0  0  0  0  0  0  0  0  0
    1.2990    0.7500    0.0000 C   0  0  0  0  0  0  0  0  0  0  0  0
    0.0000    0.0000    0.0000 C   0  0  0  0  0  0  0  0  0  0  0  0
    3.8971   -0.7500    0.0000 C   0  0  0  0  0  0  0  0  0  0  0  0
    3.8971   -2.2500    0.0000 C   0  0  0  0  0  0  0  0  0  0  0  0
    1.8481   -1.2990    0.0000 C   0  0  0  0  0  0  0  0  0  0  0  0
    2.5981   -2.5981    0.0000 O   0  0  0  0  0  0  0  0  0  0  0  0
    0.3481   -1.2990    0.0000 O   0  0  0  0  0  0  0  0  0  0  0  0
    4.8481    1.2990    0.0000 O   0  0  0  0  0  0  0  0  0  0  0  0
  1  2  2  0
  2  3  1  0
  3  4  1  0
  4  5  1  0
  3  6  1  0
  6  7  1  0
  3  8  1  0
  8  9  1  0
  8 10  2  0
  2 11  1  0
M  END
>  <Name>  (98) 
Pentane-3,3-dicarboxylic_acid_(Diethylmalonic_acid)

>  <logK_Dy_z=3.0_T=25_I=0.1>  (98) 
4.61

$$$$

     RDKit          2D

 13 12  0  0  0  0  0  0  0  0999 V2000
    6.1471   -0.5490    0.0000 O   0  0  0  0  0  0  0  0  0  0  0  0
    4.6471   -0.5490    0.0000 C   0  0  0  0  0  0  0  0  0  0  0  0
    3.8971    0.7500    0.0000 C   0  0  0  0  0  0  0  0  0  0  0  0
    3.1471    2.0490    0.0000 C   0  0  0  0  0  0  0  0  0  0  0  0
    1.6471    2.0490    0.0000 O   0  0  0  0  0  0  0  0  0  0  0  0
    3.8971    3.3481    0.0000 O   0  0  0  0  0  0  0  0  0  0  0  0
    2.5981   -0.0000    0.0000 C   0  0  0  0  0  0  0  0  0  0  0  0
    1.2990    0.7500    0.0000 C   0  0  0  0  0  0  0  0  0  0  0  0
    0.0000    0.0000    0.0000 C   0  0  0  0  0  0  0  0  0  0  0  0
    5.1962    1.5000    0.0000 C   0  0  0  0  0  0  0  0  0  0  0  0
    5.1962    3.0000    0.0000 C   0  0  0  0  0  0  0  0  0  0  0  0
    6.4952    3.7500    0.0000 C   0  0  0  0  0  0  0  0  0  0  0  0
    3.8971   -1.8481    0.0000 O   0  0  0  0  0  0  0  0  0  0  0  0
  1  2  1  0
  2  3  1  0
  3  4  1  0
  4  5  2  0
  4  6  1  0
  3  7  1  0
  7  8  1  0
  8  9  1  0
  3 10  1  0
 10 11  1  0
 11 12  1  0
  2 13  2  0
M  END
>  <Name>  (99) 
Heptane-4,4-dicarboxylic_acid_(Dipropylmalonic_acid)

>  <logK_Dy_z=3.0_T=25_I=0.1>  (99) 
4.78

$$$$

     RDKit          2D

 15 14  0  0  0  0  0  0  0  0999 V2000
    7.4462    1.2990    0.0000 O   0  0  0  0  0  0  0  0  0  0  0  0
    5.9462    1.2990    0.0000 C   0  0  0  0  0  0  0  0  0  0  0  0
    5.1962   -0.0000    0.0000 C   0  0  0  0  0  0  0  0  0  0  0  0
    4.4462   -1.2990    0.0000 C   0  0  0  0  0  0  0  0  0  0  0  0
    2.9462   -1.2990    0.0000 O   0  0  0  0  0  0  0  0  0  0  0  0
    5.1962   -2.5981    0.0000 O   0  0  0  0  0  0  0  0  0  0  0  0
    3.8971    0.7500    0.0000 C   0  0  0  0  0  0  0  0  0  0  0  0
    2.5981   -0.0000    0.0000 C   0  0  0  0  0  0  0  0  0  0  0  0
    1.2990    0.7500    0.0000 C   0  0  0  0  0  0  0  0  0  0  0  0
    0.0000    0.0000    0.0000 C   0  0  0  0  0  0  0  0  0  0  0  0
    6.4952   -0.7500    0.0000 C   0  0  0  0  0  0  0  0  0  0  0  0
    6.4952   -2.2500    0.0000 C   0  0  0  0  0  0  0  0  0  0  0  0
    7.7942   -3.0000    0.0000 C   0  0  0  0  0  0  0  0  0  0  0  0
    7.7942   -4.5000    0.0000 C   0  0  0  0  0  0  0  0  0  0  0  0
    5.1962    2.5981    0.0000 O   0  0  0  0  0  0  0  0  0  0  0  0
  1  2  1  0
  2  3  1  0
  3  4  1  0
  4  5  2  0
  4  6  1  0
  3  7  1  0
  7  8  1  0
  8  9  1  0
  9 10  1  0
  3 11  1  0
 11 12  1  0
 12 13  1  0
 13 14  1  0
  2 15  2  0
M  END
>  <Name>  (100) 
Nonane-5,5-dicarboxylic_acid_(Dibutylmalonic_acid)

>  <logK_Dy_z=3.0_T=25_I=0.1>  (100) 
4.75

$$$$

     RDKit          2D

 10 10  0  0  0  0  0  0  0  0999 V2000
    1.7331    2.5095    0.0000 O   0  0  0  0  0  0  0  0  0  0  0  0
    2.1213    1.0607    0.0000 C   0  0  0  0  0  0  0  0  0  0  0  0
    1.0607    0.0000    0.0000 C   0  0  0  0  0  0  0  0  0  0  0  0
   -0.0000   -1.0607    0.0000 C   0  0  0  0  0  0  0  0  0  0  0  0
   -1.0607    0.0000    0.0000 C   0  0  0  0  0  0  0  0  0  0  0  0
    0.0000    1.0607    0.0000 C   0  0  0  0  0  0  0  0  0  0  0  0
    2.1213   -1.0607    0.0000 C   0  0  0  0  0  0  0  0  0  0  0  0
    1.7331   -2.5095    0.0000 O   0  0  0  0  0  0  0  0  0  0  0  0
    3.5702   -0.6724    0.0000 O   0  0  0  0  0  0  0  0  0  0  0  0
    3.5702    0.6724    0.0000 O   0  0  0  0  0  0  0  0  0  0  0  0
  1  2  2  0
  2  3  1  0
  3  4  1  0
  4  5  1  0
  5  6  1  0
  3  7  1  0
  7  8  1  0
  7  9  2  0
  2 10  1  0
  6  3  1  0
M  END
>  <Name>  (101) 
Cyclobutane-1,1-dicarboxylic_acid

>  <logK_Dy_z=3.0_T=25_I=0.1>  (101) 
4.13

$$$$

     RDKit          2D

 11 11  0  0  0  0  0  0  0  0999 V2000
    2.0788    2.4709    0.0000 O   0  0  0  0  0  0  0  0  0  0  0  0
    2.3907    1.0037    0.0000 C   0  0  0  0  0  0  0  0  0  0  0  0
    1.2760    0.0000    0.0000 C   0  0  0  0  0  0  0  0  0  0  0  0
    0.3943    1.2135    0.0000 C   0  0  0  0  0  0  0  0  0  0  0  0
   -1.0323    0.7500    0.0000 C   0  0  0  0  0  0  0  0  0  0  0  0
   -1.0323   -0.7500    0.0000 C   0  0  0  0  0  0  0  0  0  0  0  0
    0.3943   -1.2135    0.0000 C   0  0  0  0  0  0  0  0  0  0  0  0
    2.3907   -1.0037    0.0000 C   0  0  0  0  0  0  0  0  0  0  0  0
    2.0788   -2.4709    0.0000 O   0  0  0  0  0  0  0  0  0  0  0  0
    3.8173   -0.5402    0.0000 O   0  0  0  0  0  0  0  0  0  0  0  0
    3.8173    0.5402    0.0000 O   0  0  0  0  0  0  0  0  0  0  0  0
  1  2  2  0
  2  3  1  0
  3  4  1  0
  4  5  1  0
  5  6  1  0
  6  7  1  0
  3  8  1  0
  8  9  1  0
  8 10  2  0
  2 11  1  0
  7  3  1  0
M  END
>  <Name>  (102) 
Cyclopentane-1,1-dicarboxylic_acid

>  <logK_Dy_z=3.0_T=25_I=0.1>  (102) 
4.29

$$$$

     RDKit          2D

  8  7  0  0  0  0  0  0  0  0999 V2000
   -1.2990    0.7500    0.0000 C   0  0  0  0  0  0  0  0  0  0  0  0
    0.0000    0.0000    0.0000 C   0  0  0  0  0  0  0  0  0  0  0  0
    1.2990    0.7500    0.0000 C   0  0  0  0  0  0  0  0  0  0  0  0
    2.5981   -0.0000    0.0000 C   0  0  0  0  0  0  0  0  0  0  0  0
    2.5981   -1.5000    0.0000 O   0  0  0  0  0  0  0  0  0  0  0  0
    3.8971    0.7500    0.0000 O   0  0  0  0  0  0  0  0  0  0  0  0
   -1.2990    2.2500    0.0000 O   0  0  0  0  0  0  0  0  0  0  0  0
   -2.5981    0.0000    0.0000 O   0  0  0  0  0  0  0  0  0  0  0  0
  1  2  1  0
  2  3  1  0
  3  4  1  0
  4  5  2  0
  4  6  1  0
  1  7  2  0
  1  8  1  0
M  END
>  <Name>  (103) 
Butanedioic_acid_(Succinic_acid)

>  <logK_Dy_z=3.0_T=25_I=0.1>  (103) 
3.33

$$$$

     RDKit          2D

  9  8  0  0  0  0  0  0  0  0999 V2000
    0.0000    0.0000    0.0000 C   0  0  0  0  0  0  0  0  0  0  0  0
    1.2990    0.7500    0.0000 C   0  0  0  0  0  0  0  0  0  0  0  0
    1.2990    2.2500    0.0000 C   0  0  0  0  0  0  0  0  0  0  0  0
   -0.0000    3.0000    0.0000 O   0  0  0  0  0  0  0  0  0  0  0  0
    2.5981    3.0000    0.0000 O   0  0  0  0  0  0  0  0  0  0  0  0
    2.5981   -0.0000    0.0000 C   0  0  0  0  0  0  0  0  0  0  0  0
    3.8971    0.7500    0.0000 C   0  0  0  0  0  0  0  0  0  0  0  0
    3.8971    2.2500    0.0000 O   0  0  0  0  0  0  0  0  0  0  0  0
    5.1962   -0.0000    0.0000 O   0  0  0  0  0  0  0  0  0  0  0  0
  1  2  1  0
  2  3  1  0
  3  4  2  0
  3  5  1  0
  2  6  1  0
  6  7  1  0
  7  8  2  0
  7  9  1  0
M  END
>  <Name>  (104) 
DL-Propane-1,2-dicarboxylic_acid_(Methylsuccinic_acid)

>  <logK_Dy_z=3.0_T=25_I=0.1>  (104) 
3.17

$$$$

     RDKit          2D

  8  7  0  0  0  0  0  0  0  0999 V2000
    0.0000   -2.5981    0.0000 O   0  0  0  0  0  0  0  0  0  0  0  0
   -0.7500   -1.2990    0.0000 C   0  0  0  0  0  0  0  0  0  0  0  0
    0.0000    0.0000    0.0000 C   0  0  0  0  0  0  0  0  0  0  0  0
    1.5000    0.0000    0.0000 C   0  0  0  0  0  0  0  0  0  0  0  0
    2.2500   -1.2990    0.0000 C   0  0  0  0  0  0  0  0  0  0  0  0
    1.5000   -2.5981    0.0000 O   0  0  0  0  0  0  0  0  0  0  0  0
    3.7500   -1.2990    0.0000 O   0  0  0  0  0  0  0  0  0  0  0  0
   -2.2500   -1.2990    0.0000 O   0  0  0  0  0  0  0  0  0  0  0  0
  1  2  2  0
  2  3  1  0
  3  4  2  0
  4  5  1  0
  5  6  2  0
  5  7  1  0
  2  8  1  0
M  END
>  <Name>  (105) 
cis-Butenedioic_acid_(Maleic_acid)

>  <logK_Dy_z=3.0_T=25_I=0.1>  (105) 
3.75

>  <logK_Dy_z=3.0_T=25_I=1.0>  (105) 
2.91

$$$$

     RDKit          2D

  8  7  0  0  0  0  0  0  0  0999 V2000
   -2.2500   -1.2990    0.0000 O   0  0  0  0  0  0  0  0  0  0  0  0
   -0.7500   -1.2990    0.0000 C   0  0  0  0  0  0  0  0  0  0  0  0
    0.0000   -2.5981    0.0000 O   0  0  0  0  0  0  0  0  0  0  0  0
    0.0000    0.0000    0.0000 C   0  0  0  0  0  0  0  0  0  0  0  0
    1.5000    0.0000    0.0000 C   0  0  0  0  0  0  0  0  0  0  0  0
    2.2500    1.2990    0.0000 C   0  0  0  0  0  0  0  0  0  0  0  0
    1.5000    2.5981    0.0000 O   0  0  0  0  0  0  0  0  0  0  0  0
    3.7500    1.2990    0.0000 O   0  0  0  0  0  0  0  0  0  0  0  0
  1  2  1  0
  2  3  2  0
  2  4  1  0
  4  5  2  0
  5  6  1  0
  6  7  2  0
  6  8  1  0
M  END
>  <Name>  (106) 
trans-Butenedioic_acid_(Fumaric_acid)

>  <logK_Dy_z=3.0_T=25_I=0.1>  (106) 
2.5

$$$$

     RDKit          2D

  9  8  0  0  0  0  0  0  0  0999 V2000
    1.2990    2.2500    0.0000 C   0  0  0  0  0  0  0  0  0  0  0  0
   -0.0000    3.0000    0.0000 O   0  0  0  0  0  0  0  0  0  0  0  0
    2.5981    3.0000    0.0000 O   0  0  0  0  0  0  0  0  0  0  0  0
    1.2990    0.7500    0.0000 C   0  0  0  0  0  0  0  0  0  0  0  0
    0.0000    0.0000    0.0000 C   0  0  0  0  0  0  0  0  0  0  0  0
    2.5981   -0.0000    0.0000 C   0  0  0  0  0  0  0  0  0  0  0  0
    3.8971    0.7500    0.0000 C   0  0  0  0  0  0  0  0  0  0  0  0
    3.8971    2.2500    0.0000 O   0  0  0  0  0  0  0  0  0  0  0  0
    5.1962   -0.0000    0.0000 O   0  0  0  0  0  0  0  0  0  0  0  0
  1  2  2  0
  1  3  1  0
  1  4  1  0
  4  5  2  0
  4  6  1  0
  6  7  1  0
  7  8  2  0
  7  9  1  0
M  END
>  <Name>  (107) 
Propene-2,3-dicarboxylic_acid_(Itaconic_acid)

>  <logK_Dy_z=3.0_T=25_I=1.0>  (107) 
2.22

$$$$

     RDKit          2D

  9  8  0  0  0  0  0  0  0  0999 V2000
   -2.5981    0.0000    0.0000 O   0  0  0  0  0  0  0  0  0  0  0  0
   -1.2990    0.7500    0.0000 C   0  0  0  0  0  0  0  0  0  0  0  0
   -1.2990    2.2500    0.0000 O   0  0  0  0  0  0  0  0  0  0  0  0
    0.0000    0.0000    0.0000 C   0  0  0  0  0  0  0  0  0  0  0  0
    1.2990    0.7500    0.0000 C   0  0  0  0  0  0  0  0  0  0  0  0
    2.5981   -0.0000    0.0000 C   0  0  0  0  0  0  0  0  0  0  0  0
    3.8971    0.7500    0.0000 C   0  0  0  0  0  0  0  0  0  0  0  0
    3.8971    2.2500    0.0000 O   0  0  0  0  0  0  0  0  0  0  0  0
    5.1962   -0.0000    0.0000 O   0  0  0  0  0  0  0  0  0  0  0  0
  1  2  1  0
  2  3  2  0
  2  4  1  0
  4  5  1  0
  5  6  1  0
  6  7  1  0
  7  8  2  0
  7  9  1  0
M  END
>  <Name>  (108) 
Pentanedioic_acid_(Glutaric_acid)

>  <logK_Dy_z=3.0_T=25_I=0.1>  (108) 
3.13

$$$$

     RDKit          2D

 10  9  0  0  0  0  0  0  0  0999 V2000
   -2.5981    0.0000    0.0000 O   0  0  0  0  0  0  0  0  0  0  0  0
   -1.2990    0.7500    0.0000 C   0  0  0  0  0  0  0  0  0  0  0  0
   -1.2990    2.2500    0.0000 O   0  0  0  0  0  0  0  0  0  0  0  0
    0.0000    0.0000    0.0000 C   0  0  0  0  0  0  0  0  0  0  0  0
    1.2990    0.7500    0.0000 C   0  0  0  0  0  0  0  0  0  0  0  0
    2.5981   -0.0000    0.0000 C   0  0  0  0  0  0  0  0  0  0  0  0
    3.8971    0.7500    0.0000 C   0  0  0  0  0  0  0  0  0  0  0  0
    5.1962   -0.0000    0.0000 C   0  0  0  0  0  0  0  0  0  0  0  0
    5.1962   -1.5000    0.0000 O   0  0  0  0  0  0  0  0  0  0  0  0
    6.4952    0.7500    0.0000 O   0  0  0  0  0  0  0  0  0  0  0  0
  1  2  1  0
  2  3  2  0
  2  4  1  0
  4  5  1  0
  5  6  1  0
  6  7  1  0
  7  8  1  0
  8  9  2  0
  8 10  1  0
M  END
>  <Name>  (109) 
Hexanedioic_acid_(Adipic_acid)

>  <logK_Dy_z=3.0_T=25_I=0.1>  (109) 
3.04

$$$$

     RDKit          2D

  0  0  0  0  0  0  0  0  0  0999 V3000
M  V30 BEGIN CTAB
M  V30 COUNTS 12 12 0 0 0
M  V30 BEGIN ATOM
M  V30 1 O 3.750000 -1.299038 0.000000 0
M  V30 2 C 3.000000 0.000000 0.000000 0
M  V30 3 C 1.500000 0.000000 0.000000 0
M  V30 4 C 0.750000 -1.299038 0.000000 0
M  V30 5 C -0.750000 -1.299038 0.000000 0
M  V30 6 C -1.500000 0.000000 0.000000 0
M  V30 7 C -3.000000 0.000000 0.000000 0
M  V30 8 O -3.750000 1.299038 0.000000 0
M  V30 9 O -3.750000 -1.299038 0.000000 0
M  V30 10 C -0.750000 1.299038 0.000000 0
M  V30 11 C 0.750000 1.299038 0.000000 0
M  V30 12 O 3.750000 1.299038 0.000000 0
M  V30 END ATOM
M  V30 BEGIN BOND
M  V30 1 1 1 2
M  V30 2 1 3 2 CFG=1
M  V30 3 1 3 4
M  V30 4 1 4 5
M  V30 5 1 5 6
M  V30 6 1 6 7 CFG=3
M  V30 7 1 7 8
M  V30 8 2 7 9
M  V30 9 1 6 10
M  V30 10 1 10 11
M  V30 11 2 2 12
M  V30 12 1 11 3
M  V30 END BOND
M  V30 BEGIN COLLECTION
M  V30 MDLV30/STERAC1 ATOMS=(2 3 6)
M  V30 END COLLECTION
M  V30 END CTAB
M  END
>  <_CXSMILES_Data>  (110) 
|&1:2,5,r|

>  <Name>  (110) 
trans-Cyclohexane-1,4-dicarboxylic_acid

>  <logK_Dy_z=3.0_T=25_I=0.1>  (110) 
4.3

$$$$

     RDKit          2D

 12 12  0  0  0  0  0  0  0  0999 V2000
    3.7500   -1.2990    0.0000 O   0  0  0  0  0  0  0  0  0  0  0  0
    3.0000    0.0000    0.0000 C   0  0  0  0  0  0  0  0  0  0  0  0
    3.7500    1.2990    0.0000 O   0  0  0  0  0  0  0  0  0  0  0  0
    1.5000    0.0000    0.0000 C   0  0  0  0  0  0  0  0  0  0  0  0
    0.7500   -1.2990    0.0000 C   0  0  0  0  0  0  0  0  0  0  0  0
    1.5000   -2.5981    0.0000 C   0  0  0  0  0  0  0  0  0  0  0  0
    3.0000   -2.5981    0.0000 O   0  0  0  0  0  0  0  0  0  0  0  0
    0.7500   -3.8971    0.0000 O   0  0  0  0  0  0  0  0  0  0  0  0
   -0.7500   -1.2990    0.0000 C   0  0  0  0  0  0  0  0  0  0  0  0
   -1.5000    0.0000    0.0000 C   0  0  0  0  0  0  0  0  0  0  0  0
   -0.7500    1.2990    0.0000 C   0  0  0  0  0  0  0  0  0  0  0  0
    0.7500    1.2990    0.0000 C   0  0  0  0  0  0  0  0  0  0  0  0
  1  2  1  0
  2  3  2  0
  2  4  1  0
  4  5  2  0
  5  6  1  0
  6  7  2  0
  6  8  1  0
  5  9  1  0
  9 10  2  0
 10 11  1  0
 11 12  2  0
 12  4  1  0
M  END
>  <Name>  (111) 
Benzene-1,2-dicarboxylic_acid_(Phthalic_acid)

>  <logK_Dy_z=3.0_T=25_I=0.1>  (111) 
3.48

$$$$

     RDKit          2D

 12 12  0  0  0  0  0  0  0  0999 V2000
    3.7500   -1.2990    0.0000 O   0  0  0  0  0  0  0  0  0  0  0  0
    3.0000    0.0000    0.0000 C   0  0  0  0  0  0  0  0  0  0  0  0
    3.7500    1.2990    0.0000 O   0  0  0  0  0  0  0  0  0  0  0  0
    1.5000    0.0000    0.0000 C   0  0  0  0  0  0  0  0  0  0  0  0
    0.7500   -1.2990    0.0000 C   0  0  0  0  0  0  0  0  0  0  0  0
   -0.7500   -1.2990    0.0000 C   0  0  0  0  0  0  0  0  0  0  0  0
   -1.5000    0.0000    0.0000 C   0  0  0  0  0  0  0  0  0  0  0  0
   -0.7500    1.2990    0.0000 C   0  0  0  0  0  0  0  0  0  0  0  0
   -1.5000    2.5981    0.0000 C   0  0  0  0  0  0  0  0  0  0  0  0
   -3.0000    2.5981    0.0000 O   0  0  0  0  0  0  0  0  0  0  0  0
   -0.7500    3.8971    0.0000 O   0  0  0  0  0  0  0  0  0  0  0  0
    0.7500    1.2990    0.0000 C   0  0  0  0  0  0  0  0  0  0  0  0
  1  2  1  0
  2  3  2  0
  2  4  1  0
  4  5  2  0
  5  6  1  0
  6  7  2  0
  7  8  1  0
  8  9  1  0
  9 10  2  0
  9 11  1  0
  8 12  2  0
 12  4  1  0
M  END
>  <Name>  (112) 
Benzene-1,3-dicarboxylic_acid_(Isophthalic_acid)

>  <logK_Dy_z=3.0_T=25_I=0.1>  (112) 
2.67

$$$$

     RDKit          2D

  9  8  0  0  0  0  0  0  0  0999 V2000
    1.2990    0.7500    0.0000 C   0  0  0  0  0  0  0  0  0  0  0  0
    1.2990    2.2500    0.0000 O   0  0  0  0  0  0  0  0  0  0  0  0
    0.0000    0.0000    0.0000 C   0  0  0  0  0  0  0  0  0  0  0  0
   -1.2990    0.7500    0.0000 C   0  0  0  0  0  0  0  0  0  0  0  0
   -2.5981    0.0000    0.0000 O   0  0  0  0  0  0  0  0  0  0  0  0
   -1.2990    2.2500    0.0000 O   0  0  0  0  0  0  0  0  0  0  0  0
    2.5981   -0.0000    0.0000 C   0  0  0  0  0  0  0  0  0  0  0  0
    3.8971    0.7500    0.0000 O   0  0  0  0  0  0  0  0  0  0  0  0
    2.5981   -1.5000    0.0000 O   0  0  0  0  0  0  0  0  0  0  0  0
  1  2  1  6
  1  3  1  0
  3  4  1  0
  4  5  1  0
  4  6  2  0
  1  7  1  0
  7  8  1  0
  7  9  2  0
M  END
>  <Name>  (113) 
L-Hydroxybutanedioic_acid_(Hydroxysuccinic_acid)(Malic_acid)

>  <logK_Dy_z=3.0_T=25_I=0.1>  (113) 
4.78

$$$$

     RDKit          2D

 10  9  0  0  0  0  0  0  0  0999 V2000
    0.0000    0.0000    0.0000 C   0  0  0  0  0  0  0  0  0  0  0  0
   -0.0000   -1.5000    0.0000 O   0  0  0  0  0  0  0  0  0  0  0  0
   -1.2990    0.7500    0.0000 C   0  0  0  0  0  0  0  0  0  0  0  0
   -2.5981    0.0000    0.0000 O   0  0  0  0  0  0  0  0  0  0  0  0
   -1.2990    2.2500    0.0000 O   0  0  0  0  0  0  0  0  0  0  0  0
    1.2990    0.7500    0.0000 C   0  0  0  0  0  0  0  0  0  0  0  0
    1.2990    2.2500    0.0000 O   0  0  0  0  0  0  0  0  0  0  0  0
    2.5981   -0.0000    0.0000 C   0  0  0  0  0  0  0  0  0  0  0  0
    3.8971    0.7500    0.0000 O   0  0  0  0  0  0  0  0  0  0  0  0
    2.5981   -1.5000    0.0000 O   0  0  0  0  0  0  0  0  0  0  0  0
  1  2  1  1
  1  3  1  0
  3  4  1  0
  3  5  2  0
  1  6  1  0
  6  7  1  1
  6  8  1  0
  8  9  1  0
  8 10  2  0
M  END
>  <Name>  (114) 
D-2,3-Dihydroxybutanedioic_acid_(D-Tartaric_acid)

>  <logK_Dy_z=3.0_T=25_I=0.1>  (114) 
4.13

$$$$

     RDKit          2D

  9  8  0  0  0  0  0  0  0  0999 V2000
    3.8971    0.7500    0.0000 O   0  0  0  0  0  0  0  0  0  0  0  0
    2.5981   -0.0000    0.0000 C   0  0  0  0  0  0  0  0  0  0  0  0
    2.5981   -1.5000    0.0000 O   0  0  0  0  0  0  0  0  0  0  0  0
    1.2990    0.7500    0.0000 C   0  0  0  0  0  0  0  0  0  0  0  0
    1.2990    2.2500    0.0000 O   0  0  0  0  0  0  0  0  0  0  0  0
    0.0000    0.0000    0.0000 C   0  0  0  0  0  0  0  0  0  0  0  0
   -1.2990    0.7500    0.0000 C   0  0  0  0  0  0  0  0  0  0  0  0
   -1.2990    2.2500    0.0000 O   0  0  0  0  0  0  0  0  0  0  0  0
   -2.5981    0.0000    0.0000 O   0  0  0  0  0  0  0  0  0  0  0  0
  1  2  1  0
  2  3  2  0
  2  4  1  0
  4  5  2  0
  4  6  1  0
  6  7  1  0
  7  8  2  0
  7  9  1  0
M  END
>  <Name>  (115) 
Oxobutanedioic_acid_(Oxaloacetic_acid)

>  <logK_Dy_z=3.0_T=25_I=0.0>  (115) 
5.66

$$$$

     RDKit          2D

  9  8  0  0  0  0  0  0  0  0999 V2000
    1.2990    0.7500    0.0000 C   0  0  0  0  0  0  0  0  0  0  0  0
    0.0000    0.0000    0.0000 C   0  0  0  0  0  0  0  0  0  0  0  0
   -1.2990    0.7500    0.0000 O   0  0  0  0  0  0  0  0  0  0  0  0
   -2.5981    0.0000    0.0000 C   0  0  0  0  0  0  0  0  0  0  0  0
   -3.8971    0.7500    0.0000 C   0  0  0  0  0  0  0  0  0  0  0  0
   -5.1962    0.0000    0.0000 O   0  0  0  0  0  0  0  0  0  0  0  0
   -3.8971    2.2500    0.0000 O   0  0  0  0  0  0  0  0  0  0  0  0
    2.5981   -0.0000    0.0000 O   0  0  0  0  0  0  0  0  0  0  0  0
    1.2990    2.2500    0.0000 O   0  0  0  0  0  0  0  0  0  0  0  0
  1  2  1  0
  2  3  1  0
  3  4  1  0
  4  5  1  0
  5  6  1  0
  5  7  2  0
  1  8  1  0
  1  9  2  0
M  END
>  <Name>  (116) 
Oxydiacetic_acid_(Diglycolic_acid)

>  <logK_Dy_z=3.0_T=25_I=0.1>  (116) 
5.91

>  <logK_Dy_z=3.0_T=25_I=1.0>  (116) 
5.31

$$$$

     RDKit          2D

 11 10  0  0  0  0  0  0  0  0999 V2000
    1.2990    2.2500    0.0000 O   0  0  0  0  0  0  0  0  0  0  0  0
    1.2990    0.7500    0.0000 C   0  0  0  0  0  0  0  0  0  0  0  0
    2.5981   -0.0000    0.0000 C   0  0  0  0  0  0  0  0  0  0  0  0
    2.5981   -1.5000    0.0000 O   0  0  0  0  0  0  0  0  0  0  0  0
    3.8971    0.7500    0.0000 O   0  0  0  0  0  0  0  0  0  0  0  0
    0.0000    0.0000    0.0000 C   0  0  0  0  0  0  0  0  0  0  0  0
    2.5981    3.0000    0.0000 C   0  0  0  0  0  0  0  0  0  0  0  0
    2.5981    4.5000    0.0000 C   0  0  0  0  0  0  0  0  0  0  0  0
    1.2990    5.2500    0.0000 O   0  0  0  0  0  0  0  0  0  0  0  0
    3.8971    5.2500    0.0000 O   0  0  0  0  0  0  0  0  0  0  0  0
    3.8971    2.2500    0.0000 C   0  0  0  0  0  0  0  0  0  0  0  0
  1  2  1  0
  2  3  1  0
  3  4  2  0
  3  5  1  0
  2  6  1  0
  1  7  1  0
  7  8  1  0
  8  9  2  0
  8 10  1  0
  7 11  1  0
M  END
>  <Name>  (117) 
DL-2,2'-Oxydipropanoic_acid_(Dilactic_acid)

>  <logK_Dy_z=3.0_T=25_I=0.1>  (117) 
5.57

$$$$

     RDKit          2D

 12 11  0  0  0  0  0  0  0  0999 V2000
   -1.2990    0.7500    0.0000 O   0  0  0  0  0  0  0  0  0  0  0  0
    0.0000    0.0000    0.0000 C   0  0  0  0  0  0  0  0  0  0  0  0
    1.2990    0.7500    0.0000 C   0  0  0  0  0  0  0  0  0  0  0  0
    1.2990    2.2500    0.0000 O   0  0  0  0  0  0  0  0  0  0  0  0
    2.5981   -0.0000    0.0000 O   0  0  0  0  0  0  0  0  0  0  0  0
   -2.5981    0.0000    0.0000 C   0  0  0  0  0  0  0  0  0  0  0  0
   -3.8971    0.7500    0.0000 C   0  0  0  0  0  0  0  0  0  0  0  0
   -5.1962    0.0000    0.0000 O   0  0  0  0  0  0  0  0  0  0  0  0
   -6.4952    0.7500    0.0000 C   0  0  0  0  0  0  0  0  0  0  0  0
   -7.7942    0.0000    0.0000 C   0  0  0  0  0  0  0  0  0  0  0  0
   -7.7942   -1.5000    0.0000 O   0  0  0  0  0  0  0  0  0  0  0  0
   -9.0933    0.7500    0.0000 O   0  0  0  0  0  0  0  0  0  0  0  0
  1  2  1  0
  2  3  1  0
  3  4  2  0
  3  5  1  0
  1  6  1  0
  6  7  1  0
  7  8  1  0
  8  9  1  0
  9 10  1  0
 10 11  2  0
 10 12  1  0
M  END
>  <Name>  (118) 
Ethylenebis(oxyacetic_acid)

>  <logK_Dy_z=3.0_T=25_I=1.0>  (118) 
4.67

$$$$

     RDKit          2D

 12 11  0  0  0  0  0  0  0  0999 V2000
   -1.2990    0.7500    0.0000 S   0  0  0  0  0  0  0  0  0  0  0  0
    0.0000    0.0000    0.0000 C   0  0  0  0  0  0  0  0  0  0  0  0
    1.2990    0.7500    0.0000 C   0  0  0  0  0  0  0  0  0  0  0  0
    1.2990    2.2500    0.0000 O   0  0  0  0  0  0  0  0  0  0  0  0
    2.5981   -0.0000    0.0000 O   0  0  0  0  0  0  0  0  0  0  0  0
   -2.5981    0.0000    0.0000 C   0  0  0  0  0  0  0  0  0  0  0  0
   -3.8971    0.7500    0.0000 C   0  0  0  0  0  0  0  0  0  0  0  0
   -5.1962    0.0000    0.0000 S   0  0  0  0  0  0  0  0  0  0  0  0
   -6.4952    0.7500    0.0000 C   0  0  0  0  0  0  0  0  0  0  0  0
   -7.7942    0.0000    0.0000 C   0  0  0  0  0  0  0  0  0  0  0  0
   -7.7942   -1.5000    0.0000 O   0  0  0  0  0  0  0  0  0  0  0  0
   -9.0933    0.7500    0.0000 O   0  0  0  0  0  0  0  0  0  0  0  0
  1  2  1  0
  2  3  1  0
  3  4  2  0
  3  5  1  0
  1  6  1  0
  6  7  1  0
  7  8  1  0
  8  9  1  0
  9 10  1  0
 10 11  2  0
 10 12  1  0
M  END
>  <Name>  (119) 
(Ethylenedithio)diacetic_acid

>  <logK_Dy_z=3.0_T=25_I=1.0>  (119) 
2.09

$$$$

     RDKit          2D

 15 15  0  0  0  0  0  0  0  0999 V2000
    1.5000    0.0000    0.0000 C   0  0  0  0  0  0  0  0  0  0  0  0
    3.0000    0.0000    0.0000 C   0  0  0  0  0  0  0  0  0  0  0  0
    3.7500   -1.2990    0.0000 O   0  0  0  0  0  0  0  0  0  0  0  0
    3.7500    1.2990    0.0000 O   0  0  0  0  0  0  0  0  0  0  0  0
    0.7500   -1.2990    0.0000 C   0  0  0  0  0  0  0  0  0  0  0  0
    1.5000   -2.5981    0.0000 C   0  0  0  0  0  0  0  0  0  0  0  0
    0.7500   -3.8971    0.0000 O   0  0  0  0  0  0  0  0  0  0  0  0
    3.0000   -2.5981    0.0000 O   0  0  0  0  0  0  0  0  0  0  0  0
   -0.7500   -1.2990    0.0000 C   0  0  0  0  0  0  0  0  0  0  0  0
   -1.5000   -2.5981    0.0000 C   0  0  0  0  0  0  0  0  0  0  0  0
   -3.0000   -2.5981    0.0000 O   0  0  0  0  0  0  0  0  0  0  0  0
   -0.7500   -3.8971    0.0000 O   0  0  0  0  0  0  0  0  0  0  0  0
   -1.5000    0.0000    0.0000 C   0  0  0  0  0  0  0  0  0  0  0  0
   -0.7500    1.2990    0.0000 C   0  0  0  0  0  0  0  0  0  0  0  0
    0.7500    1.2990    0.0000 C   0  0  0  0  0  0  0  0  0  0  0  0
  1  2  1  0
  2  3  1  0
  2  4  2  0
  1  5  2  0
  5  6  1  0
  6  7  1  0
  6  8  2  0
  5  9  1  0
  9 10  1  0
 10 11  1  0
 10 12  2  0
  9 13  2  0
 13 14  1  0
 14 15  2  0
 15  1  1  0
M  END
>  <Name>  (120) 
Benzene-1,2,3-tricarboxylic_acid_(Hemimellitic_acid)

>  <logK_Dy_z=3.0_T=25_I=0.1>  (120) 
4.92

$$$$

     RDKit          2D

 13 12  0  0  0  0  0  0  0  0999 V2000
    0.5490    2.0490    0.0000 O   0  0  0  0  0  0  0  0  0  0  0  0
    1.2990    0.7500    0.0000 C   0  0  0  0  0  0  0  0  0  0  0  0
    2.0490   -0.5490    0.0000 C   0  0  0  0  0  0  0  0  0  0  0  0
    3.5490   -0.5490    0.0000 O   0  0  0  0  0  0  0  0  0  0  0  0
    1.2990   -1.8481    0.0000 O   0  0  0  0  0  0  0  0  0  0  0  0
    0.0000    0.0000    0.0000 C   0  0  0  0  0  0  0  0  0  0  0  0
   -1.2990    0.7500    0.0000 C   0  0  0  0  0  0  0  0  0  0  0  0
   -2.5981    0.0000    0.0000 O   0  0  0  0  0  0  0  0  0  0  0  0
   -1.2990    2.2500    0.0000 O   0  0  0  0  0  0  0  0  0  0  0  0
    2.5981    1.5000    0.0000 C   0  0  0  0  0  0  0  0  0  0  0  0
    2.5981    3.0000    0.0000 C   0  0  0  0  0  0  0  0  0  0  0  0
    3.8971    3.7500    0.0000 O   0  0  0  0  0  0  0  0  0  0  0  0
    1.2990    3.7500    0.0000 O   0  0  0  0  0  0  0  0  0  0  0  0
  1  2  1  0
  2  3  1  0
  3  4  1  0
  3  5  2  0
  2  6  1  0
  6  7  1  0
  7  8  1  0
  7  9  2  0
  2 10  1  0
 10 11  1  0
 11 12  1  0
 11 13  2  0
M  END
>  <Name>  (121) 
2-Hydroxypropane-1,2,3-tricarboxylic_acid_(Citric_acid)

>  <logK_Dy_z=3.0_T=25_I=0.1>  (121) 
7.68

>  <logK_Dy_z=3.0_T=25_I=0.0>  (121) 
9.34

$$$$

     RDKit          2D

 18 18  0  0  0  0  0  0  0  0999 V2000
    1.5000    0.0000    0.0000 C   0  0  0  0  0  0  0  0  0  0  0  0
    3.0000    0.0000    0.0000 C   0  0  0  0  0  0  0  0  0  0  0  0
    3.7500   -1.2990    0.0000 O   0  0  0  0  0  0  0  0  0  0  0  0
    3.7500    1.2990    0.0000 O   0  0  0  0  0  0  0  0  0  0  0  0
    0.7500   -1.2990    0.0000 C   0  0  0  0  0  0  0  0  0  0  0  0
   -0.7500   -1.2990    0.0000 C   0  0  0  0  0  0  0  0  0  0  0  0
   -1.5000   -2.5981    0.0000 C   0  0  0  0  0  0  0  0  0  0  0  0
   -3.0000   -2.5981    0.0000 O   0  0  0  0  0  0  0  0  0  0  0  0
   -0.7500   -3.8971    0.0000 O   0  0  0  0  0  0  0  0  0  0  0  0
   -1.5000    0.0000    0.0000 C   0  0  0  0  0  0  0  0  0  0  0  0
   -0.7500    1.2990    0.0000 C   0  0  0  0  0  0  0  0  0  0  0  0
    0.7500    1.2990    0.0000 C   0  0  0  0  0  0  0  0  0  0  0  0
    1.5000    2.5981    0.0000 C   0  0  0  0  0  0  0  0  0  0  0  0
    0.7500    3.8971    0.0000 O   0  0  0  0  0  0  0  0  0  0  0  0
    3.0000    2.5981    0.0000 O   0  0  0  0  0  0  0  0  0  0  0  0
   -3.0000    0.0000    0.0000 C   0  0  0  0  0  0  0  0  0  0  0  0
   -3.7500    1.2990    0.0000 O   0  0  0  0  0  0  0  0  0  0  0  0
   -3.7500   -1.2990    0.0000 O   0  0  0  0  0  0  0  0  0  0  0  0
  1  2  1  0
  2  3  1  0
  2  4  2  0
  1  5  2  0
  5  6  1  0
  6  7  1  0
  7  8  1  0
  7  9  2  0
  6 10  2  0
 10 11  1  0
 11 12  2  0
 12 13  1  0
 13 14  1  0
 13 15  2  0
 10 16  1  0
 16 17  1  0
 16 18  2  0
 12  1  1  0
M  END
>  <Name>  (122) 
Benzene-1,2,4,5-tetracarboxylic_acid_(Pyromellitic_acid)

>  <logK_Dy_z=3.0_T=25_I=0.1>  (122) 
4.69

$$$$

     RDKit          2D

 15 15  0  0  0  0  0  0  0  0999 V2000
    3.0000    0.0000    0.0000 Br  0  0  0  0  0  0  0  0  0  0  0  0
    1.5000    0.0000    0.0000 C   0  0  0  0  0  0  0  0  0  0  0  0
    0.7500   -1.2990    0.0000 C   0  0  0  0  0  0  0  0  0  0  0  0
   -0.7500   -1.2990    0.0000 C   0  0  0  0  0  0  0  0  0  0  0  0
   -1.5000   -2.5981    0.0000 C   0  0  0  0  0  0  0  0  0  0  0  0
   -0.7500   -3.8971    0.0000 O   0  0  0  0  0  0  0  0  0  0  0  0
   -3.0000   -2.5981    0.0000 O   0  0  0  0  0  0  0  0  0  0  0  0
   -1.5000    0.0000    0.0000 C   0  0  0  0  0  0  0  0  0  0  0  0
   -0.7500    1.2990    0.0000 C   0  0  0  0  0  0  0  0  0  0  0  0
    0.7500    1.2990    0.0000 C   0  0  0  0  0  0  0  0  0  0  0  0
   -1.5000    2.5981    0.0000 S   0  0  0  0  0  0  0  0  0  0  0  0
   -0.2010    3.3481    0.0000 O   0  0  0  0  0  0  0  0  0  0  0  0
   -2.7990    1.8481    0.0000 O   0  0  0  0  0  0  0  0  0  0  0  0
   -2.2500    3.8971    0.0000 O   0  0  0  0  0  0  0  0  0  0  0  0
    1.5000   -2.5981    0.0000 O   0  0  0  0  0  0  0  0  0  0  0  0
  1  2  1  0
  2  3  2  0
  3  4  1  0
  4  5  1  0
  5  6  2  0
  5  7  1  0
  4  8  2  0
  8  9  1  0
  9 10  2  0
  9 11  1  0
 11 12  2  0
 11 13  2  0
 11 14  1  0
  3 15  1  0
 10  2  1  0
M  END
>  <Name>  (123) 
3-Bromo-2-hydroxy-5-sulfobenzoic_acid_(3-Bromo-5-sulfosalicylic_acid)

>  <logK_Dy_z=3.0_T=25_I=0.1>  (123) 
7.58

$$$$

     RDKit          2D

 20 20  0  0  0  0  0  0  0  0999 V2000
    7.5000    2.5981    0.0000 S   0  0  0  0  0  0  0  0  0  0  0  0
    6.0000    2.5981    0.0000 C   0  0  0  0  0  0  0  0  0  0  0  0
    5.2500    1.2990    0.0000 C   0  0  0  0  0  0  0  0  0  0  0  0
    3.7500    1.2990    0.0000 C   0  0  0  0  0  0  0  0  0  0  0  0
    3.0000    0.0000    0.0000 N   0  0  0  0  0  0  0  0  0  0  0  0
    1.5000    0.0000    0.0000 C   0  0  0  0  0  0  0  0  0  0  0  0
    0.7500   -1.2990    0.0000 C   0  0  0  0  0  0  0  0  0  0  0  0
   -0.7500   -1.2990    0.0000 C   0  0  0  0  0  0  0  0  0  0  0  0
   -1.5000    0.0000    0.0000 C   0  0  0  0  0  0  0  0  0  0  0  0
   -0.7500    1.2990    0.0000 C   0  0  0  0  0  0  0  0  0  0  0  0
    0.7500    1.2990    0.0000 C   0  0  0  0  0  0  0  0  0  0  0  0
   -1.5000    2.5981    0.0000 O   0  0  0  0  0  0  0  0  0  0  0  0
   -3.0000    0.0000    0.0000 N   0  0  0  0  0  0  0  0  0  0  0  0
   -3.7500    1.2990    0.0000 O   0  0  0  0  0  0  0  0  0  0  0  0
    3.7500   -1.2990    0.0000 C   0  0  0  0  0  0  0  0  0  0  0  0
    5.2500   -1.2990    0.0000 C   0  0  0  0  0  0  0  0  0  0  0  0
    6.0000   -2.5981    0.0000 C   0  0  0  0  0  0  0  0  0  0  0  0
    7.5000    4.0981    0.0000 O   0  0  0  0  0  0  0  0  0  0  0  0
    7.5000    1.0981    0.0000 O   0  0  0  0  0  0  0  0  0  0  0  0
    9.0000    2.5981    0.0000 O   0  0  0  0  0  0  0  0  0  0  0  0
  1  2  1  0
  2  3  1  0
  3  4  1  0
  4  5  1  0
  5  6  1  0
  6  7  2  0
  7  8  1  0
  8  9  2  0
  9 10  1  0
 10 11  2  0
 10 12  1  0
  9 13  1  0
 13 14  2  0
  5 15  1  0
 15 16  1  0
 16 17  1  0
  1 18  2  0
  1 19  2  0
  1 20  1  0
 11  6  1  0
M  END
>  <Name>  (124) 
2-Nitroso-5-(N-propyl-3-sulfopropylamino)phenol

>  <logK_Dy_z=3.0_T=25_I=0.1>  (124) 
5.85

$$$$

     RDKit          2D

 10 10  0  0  0  0  0  0  0  0999 V2000
    3.0000    0.0000    0.0000 O   0  0  0  0  0  0  0  0  0  0  0  0
    1.5000    0.0000    0.0000 C   0  0  0  0  0  0  0  0  0  0  0  0
    0.7500   -1.2990    0.0000 C   0  0  0  0  0  0  0  0  0  0  0  0
   -0.7500   -1.2990    0.0000 C   0  0  0  0  0  0  0  0  0  0  0  0
   -1.5000    0.0000    0.0000 C   0  0  0  0  0  0  0  0  0  0  0  0
   -0.7500    1.2990    0.0000 C   0  0  0  0  0  0  0  0  0  0  0  0
    0.7500    1.2990    0.0000 C   0  0  0  0  0  0  0  0  0  0  0  0
    1.5000    2.5981    0.0000 N   0  0  0  0  0  0  0  0  0  0  0  0
    3.0000    2.5981    0.0000 O   0  0  0  0  0  0  0  0  0  0  0  0
   -1.5000   -2.5981    0.0000 O   0  0  0  0  0  0  0  0  0  0  0  0
  1  2  1  0
  2  3  2  0
  3  4  1  0
  4  5  2  0
  5  6  1  0
  6  7  2  0
  7  8  1  0
  8  9  2  0
  4 10  1  0
  7  2  1  0
M  END
>  <Name>  (125) 
1,3-Dihydroxy-4-nitrosobenzene_(Nitrosoresorcinol)

>  <logK_Dy_z=3.0_T=25_I=0.1>  (125) 
6.24

$$$$

     RDKit          2D

 17 18  0  0  0  0  0  0  0  0999 V2000
   -3.0000   -2.5981    0.0000 O   0  0  0  0  0  0  0  0  0  0  0  0
   -1.5000   -2.5981    0.0000 C   0  0  0  0  0  0  0  0  0  0  0  0
   -0.7500   -3.8971    0.0000 C   0  0  0  0  0  0  0  0  0  0  0  0
    0.7500   -3.8971    0.0000 C   0  0  0  0  0  0  0  0  0  0  0  0
    1.5000   -2.5981    0.0000 C   0  0  0  0  0  0  0  0  0  0  0  0
    0.7500   -1.2990    0.0000 C   0  0  0  0  0  0  0  0  0  0  0  0
    1.5000    0.0000    0.0000 C   0  0  0  0  0  0  0  0  0  0  0  0
    0.7500    1.2990    0.0000 C   0  0  0  0  0  0  0  0  0  0  0  0
   -0.7500    1.2990    0.0000 C   0  0  0  0  0  0  0  0  0  0  0  0
   -1.5000    0.0000    0.0000 C   0  0  0  0  0  0  0  0  0  0  0  0
   -0.7500   -1.2990    0.0000 C   0  0  0  0  0  0  0  0  0  0  0  0
    3.0000   -2.5981    0.0000 S   0  0  0  0  0  6  0  0  0  0  0  0
    4.5000   -2.5981    0.0000 O   0  0  0  0  0  0  0  0  0  0  0  0
    3.0000   -4.0981    0.0000 O   0  0  0  0  0  0  0  0  0  0  0  0
    3.0000   -1.0981    0.0000 O   0  0  0  0  0  0  0  0  0  0  0  0
   -1.5000   -5.1962    0.0000 N   0  0  0  0  0  0  0  0  0  0  0  0
   -3.0000   -5.1962    0.0000 O   0  0  0  0  0  0  0  0  0  0  0  0
  1  2  1  0
  2  3  2  0
  3  4  1  0
  4  5  2  0
  5  6  1  0
  6  7  2  0
  7  8  1  0
  8  9  2  0
  9 10  1  0
 10 11  2  0
  5 12  1  0
 12 13  1  0
 12 14  2  0
 12 15  2  0
  3 16  1  0
 16 17  2  0
 11  2  1  0
 11  6  1  0
M  END
>  <Name>  (126) 
2-Nitroso-1-naphthol-4-sulfonic_acid_(Nitroso-NW_acid)

>  <logK_Dy_z=3.0_T=25_I=0.1>  (126) 
3.28

>  <logK_Dy_z=3.0_T=25_I=0.0>  (126) 
4.39

$$$$

     RDKit          2D

 13 14  0  0  0  0  0  0  0  0999 V2000
    0.7500   -1.2990    0.0000 C   0  0  0  0  0  0  0  0  0  0  0  0
    1.5000    0.0000    0.0000 C   0  0  0  0  0  0  0  0  0  0  0  0
    0.7500    1.2990    0.0000 C   0  0  0  0  0  0  0  0  0  0  0  0
   -0.7500    1.2990    0.0000 C   0  0  0  0  0  0  0  0  0  0  0  0
   -1.5000    0.0000    0.0000 C   0  0  0  0  0  0  0  0  0  0  0  0
   -0.7500   -1.2990    0.0000 C   0  0  0  0  0  0  0  0  0  0  0  0
   -1.5000   -2.5981    0.0000 C   0  0  0  0  0  0  0  0  0  0  0  0
   -0.7500   -3.8971    0.0000 C   0  0  0  0  0  0  0  0  0  0  0  0
    0.7500   -3.8971    0.0000 C   0  0  0  0  0  0  0  0  0  0  0  0
    1.5000   -5.1962    0.0000 O   0  0  0  0  0  0  0  0  0  0  0  0
    1.5000   -2.5981    0.0000 C   0  0  0  0  0  0  0  0  0  0  0  0
    3.0000   -2.5981    0.0000 N   0  0  0  0  0  0  0  0  0  0  0  0
    3.7500   -3.8971    0.0000 O   0  0  0  0  0  0  0  0  0  0  0  0
  1  2  2  0
  2  3  1  0
  3  4  2  0
  4  5  1  0
  5  6  2  0
  6  7  1  0
  7  8  2  0
  8  9  1  0
  9 10  1  0
  9 11  2  0
 11 12  1  0
 12 13  2  0
  6  1  1  0
 11  1  1  0
M  END
>  <Name>  (127) 
1-Nitroso-2-naphthol

>  <logK_Dy_z=3.0_T=25_I=0.1>  (127) 
4.3

$$$$

     RDKit          2D

  7  6  0  0  0  0  0  0  0  0999 V2000
    0.0000    0.0000    0.0000 C   0  0  0  0  0  0  0  0  0  0  0  0
    1.2990    0.7500    0.0000 C   0  0  0  0  0  0  0  0  0  0  0  0
    2.5981   -0.0000    0.0000 C   0  0  0  0  0  0  0  0  0  0  0  0
    3.8971    0.7500    0.0000 C   0  0  0  0  0  0  0  0  0  0  0  0
    5.1962   -0.0000    0.0000 C   0  0  0  0  0  0  0  0  0  0  0  0
    3.8971    2.2500    0.0000 O   0  0  0  0  0  0  0  0  0  0  0  0
    1.2990    2.2500    0.0000 O   0  0  0  0  0  0  0  0  0  0  0  0
  1  2  1  0
  2  3  1  0
  3  4  1  0
  4  5  1  0
  4  6  2  0
  2  7  2  0
M  END
>  <Name>  (128) 
Pentane-2,4-dione_(Acetylacetone)

>  <logK_Dy_z=3.0_T=25_I=0.1>  (128) 
6.06

>  <logK_Dy_z=3.0_T=25_I=2.0>  (128) 
5.74

$$$$

     RDKit          2D

  8  8  0  0  0  0  0  0  0  0999 V2000
    1.0607    0.0000    0.0000 C   0  0  0  0  0  0  0  0  0  0  0  0
    2.5607    0.0000    0.0000 O   0  0  0  0  0  0  0  0  0  0  0  0
   -0.0000   -1.0607    0.0000 C   0  0  0  0  0  0  0  0  0  0  0  0
   -0.0000   -2.5607    0.0000 O   0  0  0  0  0  0  0  0  0  0  0  0
   -1.0607    0.0000    0.0000 C   0  0  0  0  0  0  0  0  0  0  0  0
   -2.5607    0.0000    0.0000 O   0  0  0  0  0  0  0  0  0  0  0  0
    0.0000    1.0607    0.0000 C   0  0  0  0  0  0  0  0  0  0  0  0
    0.0000    2.5607    0.0000 O   0  0  0  0  0  0  0  0  0  0  0  0
  1  2  1  0
  1  3  1  0
  3  4  2  0
  3  5  1  0
  5  6  2  0
  5  7  1  0
  7  8  1  0
  7  1  2  0
M  END
>  <Name>  (129) 
Dihydroxycyclobutenedione_(Squaric_acid)

>  <logK_Dy_z=3.0_T=25_I=0.1>  (129) 
2.87

$$$$

     RDKit          2D

  9  9  0  0  0  0  0  0  0  0999 V2000
    1.7286    0.0000    0.0000 C   0  0  0  0  0  0  0  0  0  0  0  0
    3.2286   -0.0000    0.0000 O   0  0  0  0  0  0  0  0  0  0  0  0
    1.0777    1.3515    0.0000 C   0  0  0  0  0  0  0  0  0  0  0  0
   -0.3846    1.6852    0.0000 C   0  0  0  0  0  0  0  0  0  0  0  0
   -1.5574    0.7500    0.0000 C   0  0  0  0  0  0  0  0  0  0  0  0
   -1.5574   -0.7500    0.0000 C   0  0  0  0  0  0  0  0  0  0  0  0
   -0.3846   -1.6852    0.0000 C   0  0  0  0  0  0  0  0  0  0  0  0
    1.0777   -1.3515    0.0000 C   0  0  0  0  0  0  0  0  0  0  0  0
    2.0130   -2.5242    0.0000 O   0  0  0  0  0  0  0  0  0  0  0  0
  1  2  1  0
  1  3  2  0
  3  4  1  0
  4  5  2  0
  5  6  1  0
  6  7  2  0
  7  8  1  0
  8  9  2  0
  8  1  1  0
M  END
>  <Name>  (130) 
1-Hydroxycyclohepta-3,5,7-trien-2-one_(Tropolone)

>  <logK_Dy_z=3.0_T=25_I=0.1>  (130) 
7.23

$$$$

     RDKit          2D

  9  9  0  0  0  0  0  0  0  0999 V2000
    1.5000    0.0000    0.0000 O   0  0  0  0  0  0  0  0  0  0  0  0
    0.7500   -1.2990    0.0000 C   0  0  0  0  0  0  0  0  0  0  0  0
   -0.7500   -1.2990    0.0000 C   0  0  0  0  0  0  0  0  0  0  0  0
   -1.5000    0.0000    0.0000 C   0  0  0  0  0  0  0  0  0  0  0  0
   -3.0000    0.0000    0.0000 O   0  0  0  0  0  0  0  0  0  0  0  0
   -0.7500    1.2990    0.0000 C   0  0  0  0  0  0  0  0  0  0  0  0
   -1.5000    2.5981    0.0000 O   0  0  0  0  0  0  0  0  0  0  0  0
    0.7500    1.2990    0.0000 C   0  0  0  0  0  0  0  0  0  0  0  0
    1.5000    2.5981    0.0000 C   0  0  0  0  0  0  0  0  0  0  0  0
  1  2  1  0
  2  3  2  0
  3  4  1  0
  4  5  2  0
  4  6  1  0
  6  7  1  0
  6  8  2  0
  8  9  1  0
  8  1  1  0
M  END
>  <Name>  (131) 
3-Hydroxy-2-methyl-4-pyrone_(Maltol)

>  <logK_Dy_z=3.0_T=30_I=0.1>  (131) 
6.7

$$$$

     RDKit          2D

 10 10  0  0  0  0  0  0  0  0999 V2000
    1.5000    0.0000    0.0000 C   0  0  0  0  0  0  0  0  0  0  0  0
    3.0000    0.0000    0.0000 O   0  0  0  0  0  0  0  0  0  0  0  0
    0.7500   -1.2990    0.0000 C   0  0  0  0  0  0  0  0  0  0  0  0
   -0.7500   -1.2990    0.0000 O   0  0  0  0  0  0  0  0  0  0  0  0
   -1.5000    0.0000    0.0000 C   0  0  0  0  0  0  0  0  0  0  0  0
   -3.0000    0.0000    0.0000 C   0  0  0  0  0  0  0  0  0  0  0  0
   -3.7500    1.2990    0.0000 O   0  0  0  0  0  0  0  0  0  0  0  0
   -0.7500    1.2990    0.0000 C   0  0  0  0  0  0  0  0  0  0  0  0
    0.7500    1.2990    0.0000 C   0  0  0  0  0  0  0  0  0  0  0  0
    1.5000    2.5981    0.0000 O   0  0  0  0  0  0  0  0  0  0  0  0
  1  2  1  0
  1  3  2  0
  3  4  1  0
  4  5  1  0
  5  6  1  0
  6  7  1  0
  5  8  2  0
  8  9  1  0
  9 10  2  0
  9  1  1  0
M  END
>  <Name>  (132) 
5-Hydroxy-2-hydroxymethyl-4-pyrone_(Kojic_acid)

>  <logK_Dy_z=3.0_T=25_I=0.1>  (132) 
6.28

>  <logK_Dy_z=3.0_T=25_I=2.0>  (132) 
5.97

$$$$

     RDKit          2D

 11 11  0  0  0  0  0  0  0  0999 V2000
    1.5000    0.0000    0.0000 O   0  0  0  0  0  0  0  0  0  0  0  0
    0.7500   -1.2990    0.0000 C   0  0  0  0  0  0  0  0  0  0  0  0
    1.5000   -2.5981    0.0000 C   0  0  0  0  0  0  0  0  0  0  0  0
   -0.7500   -1.2990    0.0000 C   0  0  0  0  0  0  0  0  0  0  0  0
   -1.5000    0.0000    0.0000 C   0  0  0  0  0  0  0  0  0  0  0  0
   -0.7500    1.2990    0.0000 C   0  0  0  0  0  0  0  0  0  0  0  0
    0.7500    1.2990    0.0000 C   0  0  0  0  0  0  0  0  0  0  0  0
    1.5000    2.5981    0.0000 C   0  0  0  0  0  0  0  0  0  0  0  0
    3.0000    2.5981    0.0000 O   0  0  0  0  0  0  0  0  0  0  0  0
   -3.0000    0.0000    0.0000 O   0  0  0  0  0  0  0  0  0  0  0  0
   -1.5000   -2.5981    0.0000 O   0  0  0  0  0  0  0  0  0  0  0  0
  1  2  1  0
  2  3  1  0
  2  4  2  0
  4  5  1  0
  5  6  1  0
  6  7  2  0
  7  8  1  0
  8  9  1  0
  5 10  2  0
  4 11  1  0
  7  1  1  0
M  END
>  <Name>  (133) 
5-Hydroxy-2-hydroxymethyl-6-methyl-4-pyrone_(6-Methylkojic_acid)

>  <logK_Dy_z=3.0_T=25_I=0.1>  (133) 
6.62

$$$$

     RDKit          2D

 11 11  0  0  0  0  0  0  0  0999 V2000
    3.0000    0.0000    0.0000 Br  0  0  0  0  0  0  0  0  0  0  0  0
    1.5000    0.0000    0.0000 C   0  0  0  0  0  0  0  0  0  0  0  0
    0.7500   -1.2990    0.0000 C   0  0  0  0  0  0  0  0  0  0  0  0
   -0.7500   -1.2990    0.0000 C   0  0  0  0  0  0  0  0  0  0  0  0
   -1.5000    0.0000    0.0000 C   0  0  0  0  0  0  0  0  0  0  0  0
   -0.7500    1.2990    0.0000 C   0  0  0  0  0  0  0  0  0  0  0  0
   -1.5000    2.5981    0.0000 C   0  0  0  0  0  0  0  0  0  0  0  0
   -0.7500    3.8971    0.0000 O   0  0  0  0  0  0  0  0  0  0  0  0
    0.7500    1.2990    0.0000 O   0  0  0  0  0  0  0  0  0  0  0  0
   -1.5000   -2.5981    0.0000 O   0  0  0  0  0  0  0  0  0  0  0  0
    1.5000   -2.5981    0.0000 O   0  0  0  0  0  0  0  0  0  0  0  0
  1  2  1  0
  2  3  2  0
  3  4  1  0
  4  5  1  0
  5  6  2  0
  6  7  1  0
  7  8  1  0
  6  9  1  0
  4 10  2  0
  3 11  1  0
  9  2  1  0
M  END
>  <Name>  (134) 
6-Bromo-5-hydroxy-2-hydroxymethyl-4-pyrone_(6-Bromokojic_acid)

>  <logK_Dy_z=3.0_T=25_I=0.1>  (134) 
5.47

$$$$

     RDKit          2D

 11 11  0  0  0  0  0  0  0  0999 V2000
    3.0000    0.0000    0.0000 I   0  0  0  0  0  0  0  0  0  0  0  0
    1.5000    0.0000    0.0000 C   0  0  0  0  0  0  0  0  0  0  0  0
    0.7500   -1.2990    0.0000 C   0  0  0  0  0  0  0  0  0  0  0  0
   -0.7500   -1.2990    0.0000 C   0  0  0  0  0  0  0  0  0  0  0  0
   -1.5000    0.0000    0.0000 C   0  0  0  0  0  0  0  0  0  0  0  0
   -0.7500    1.2990    0.0000 C   0  0  0  0  0  0  0  0  0  0  0  0
   -1.5000    2.5981    0.0000 C   0  0  0  0  0  0  0  0  0  0  0  0
   -0.7500    3.8971    0.0000 O   0  0  0  0  0  0  0  0  0  0  0  0
    0.7500    1.2990    0.0000 O   0  0  0  0  0  0  0  0  0  0  0  0
   -1.5000   -2.5981    0.0000 O   0  0  0  0  0  0  0  0  0  0  0  0
    1.5000   -2.5981    0.0000 O   0  0  0  0  0  0  0  0  0  0  0  0
  1  2  1  0
  2  3  2  0
  3  4  1  0
  4  5  1  0
  5  6  2  0
  6  7  1  0
  7  8  1  0
  6  9  1  0
  4 10  2  0
  3 11  1  0
  9  2  1  0
M  END
>  <Name>  (135) 
5-Hydroxy-2-hydroxymethyl-6-iodo-4-pyrone_(6-Iodokojic_acid)

>  <logK_Dy_z=3.0_T=25_I=0.1>  (135) 
5.59

$$$$

     RDKit          2D

 12 12  0  0  0  0  0  0  0  0999 V2000
    1.5000    0.0000    0.0000 O   0  0  0  0  0  0  0  0  0  0  0  0
    0.7500   -1.2990    0.0000 C   0  0  0  0  0  0  0  0  0  0  0  0
    1.5000   -2.5981    0.0000 C   0  0  0  0  0  0  0  0  0  0  0  0
    0.7500   -3.8971    0.0000 O   0  0  0  0  0  0  0  0  0  0  0  0
   -0.7500   -1.2990    0.0000 C   0  0  0  0  0  0  0  0  0  0  0  0
   -1.5000    0.0000    0.0000 C   0  0  0  0  0  0  0  0  0  0  0  0
   -0.7500    1.2990    0.0000 C   0  0  0  0  0  0  0  0  0  0  0  0
    0.7500    1.2990    0.0000 C   0  0  0  0  0  0  0  0  0  0  0  0
    1.5000    2.5981    0.0000 C   0  0  0  0  0  0  0  0  0  0  0  0
    3.0000    2.5981    0.0000 O   0  0  0  0  0  0  0  0  0  0  0  0
   -1.5000    2.5981    0.0000 O   0  0  0  0  0  0  0  0  0  0  0  0
   -3.0000    0.0000    0.0000 O   0  0  0  0  0  0  0  0  0  0  0  0
  1  2  1  0
  2  3  1  0
  3  4  1  0
  2  5  2  0
  5  6  1  0
  6  7  1  0
  7  8  2  0
  8  9  1  0
  9 10  1  0
  7 11  1  0
  6 12  2  0
  8  1  1  0
M  END
>  <Name>  (136) 
3-Hydroxy-2,6-bis(hydroxymethyl)-4-pyrone_(6-Hydroxymethylkojic_acid)

>  <logK_Dy_z=3.0_T=25_I=0.1>  (136) 
6.26

$$$$

     RDKit          2D

 12 12  0  0  0  0  0  0  0  0999 V2000
    1.2760    0.0000    0.0000 C   0  0  0  0  0  0  0  0  0  0  0  0
    2.7760    0.0000    0.0000 C   0  0  0  0  0  0  0  0  0  0  0  0
    3.5260    1.2990    0.0000 O   0  0  0  0  0  0  0  0  0  0  0  0
    3.5260   -1.2990    0.0000 C   0  0  0  0  0  0  0  0  0  0  0  0
    5.0260   -1.2990    0.0000 O   0  0  0  0  0  0  0  0  0  0  0  0
    0.3943    1.2135    0.0000 C   0  0  0  0  0  0  0  0  0  0  0  0
    0.8578    2.6401    0.0000 O   0  0  0  0  0  0  0  0  0  0  0  0
   -1.0323    0.7500    0.0000 C   0  0  0  0  0  0  0  0  0  0  0  0
   -2.2458    1.6317    0.0000 O   0  0  0  0  0  0  0  0  0  0  0  0
   -1.0323   -0.7500    0.0000 C   0  0  0  0  0  0  0  0  0  0  0  0
   -2.2458   -1.6317    0.0000 O   0  0  0  0  0  0  0  0  0  0  0  0
    0.3943   -1.2135    0.0000 O   0  0  0  0  0  0  0  0  0  0  0  0
  1  2  1  0
  2  3  1  1
  2  4  1  0
  4  5  1  0
  1  6  1  0
  6  7  1  0
  6  8  2  0
  8  9  1  0
  8 10  1  0
 10 11  2  0
 10 12  1  0
  1 12  1  1
M  END
>  <Name>  (137) 
L-3,4-Dihydroxy-5-(1,2-dihydroxyethyl)-2,5-H-oxole-2-one_(L-Ascorbic_acid)

>  <logK_Dy_z=3.0_T=25_I=0.1>  (137) 
1.3

>  <logK_Dy_z=3.0_T=25_I=2.0>  (137) 
1.45

$$$$

     RDKit          2D

  5  4  0  0  0  0  0  0  0  0999 V2000
    0.0000    0.0000    0.0000 C   0  0  0  0  0  0  0  0  0  0  0  0
    1.2990    0.7500    0.0000 C   0  0  0  0  0  0  0  0  0  0  0  0
    2.5981   -0.0000    0.0000 N   0  0  0  0  0  0  0  0  0  0  0  0
    3.8971    0.7500    0.0000 O   0  0  0  0  0  0  0  0  0  0  0  0
    1.2990    2.2500    0.0000 O   0  0  0  0  0  0  0  0  0  0  0  0
  1  2  1  0
  2  3  1  0
  3  4  1  0
  2  5  2  0
M  END
>  <Name>  (138) 
Acetohydroxamic_acid

>  <logK_Dy_z=3.0_T=20_I=0.1>  (138) 
6.52

$$$$

     RDKit          2D

  1  0  0  0  0  0  0  0  0  0999 V2000
    0.0000    0.0000    0.0000 O   0  0  0  0  0  1  0  0  0  0  0  0
M  CHG  1   1  -1
M  END
>  <Name>  (139) 
Hydroxide_ion

>  <logK_Dy_z=3.0_T=25_I=0.5>  (139) 
5.63

$$$$

     RDKit          2D

  3  2  0  0  0  0  0  0  0  0999 V2000
    0.0000    0.0000    0.0000 C   0  0  0  0  0  0  0  0  0  0  0  0
   -0.0000   -1.5000    0.0000 S   0  0  0  0  0  0  0  0  0  0  0  0
    0.0000    1.5000    0.0000 N   0  0  0  0  0  0  0  0  0  0  0  0
  1  2  1  0
  1  3  3  0
M  END
>  <Name>  (140) 
Hydrogen_thiocyanate_(Thiocyanic_acid)

>  <logK_Dy_z=3.0_T=20_I=0.5>  (140) 
0.12

>  <logK_Dy_z=3.0_T=25_I=2.0>  (140) 
0.25

$$$$

     RDKit          2D

  4  3  0  0  0  0  0  0  0  0999 V2000
    1.2990    0.7500    0.0000 O   0  0  0  0  0  1  0  0  0  0  0  0
    0.0000    0.0000    0.0000 N   0  0  0  0  0  4  0  0  0  0  0  0
   -1.2990    0.7500    0.0000 O   0  0  0  0  0  1  0  0  0  0  0  0
   -0.0000   -1.5000    0.0000 O   0  0  0  0  0  0  0  0  0  0  0  0
  1  2  1  0
  2  3  1  0
  2  4  2  0
M  CHG  3   1  -1   2   1   3  -1
M  END
>  <Name>  (141) 
Nitrate_ion

>  <logK_Dy_z=3.0_T=25_I=1.0>  (141) 
-0.3

$$$$

     RDKit          2D

  1  0  0  0  0  0  0  0  0  0999 V2000
    0.0000    0.0000    0.0000 F   0  0  0  0  0  0  0  0  0  0  0  0
M  END
>  <Name>  (142) 
Hydrogen_fluoride_(Hydrofluoric_acid)

>  <logK_Dy_z=3.0_T=25_I=0.1>  (142) 
3.84

>  <logK_Dy_z=3.0_T=25_I=0.5>  (142) 
3.47

>  <logK_Dy_z=3.0_T=25_I=1.0>  (142) 
3.46

>  <logK_Dy_z=3.0_T=25_I=0.0>  (142) 
4.48

$$$$

     RDKit          2D

 25 26  0  0  0  0  0  0  0  0999 V2000
   10.4961  -14.1763    0.0000 C   0  0  0  0  0  0  0  0  0  0  0  0
   11.3822  -13.2439    0.0000 C   0  0  0  0  0  0  0  0  0  0  0  0
   12.6955  -16.8205    0.0000 C   0  0  0  0  0  0  0  0  0  0  0  0
   11.5583  -16.3022    0.0000 C   0  0  0  0  0  0  0  0  0  0  0  0
   16.1692  -16.3720    0.0000 C   0  0  0  0  0  0  0  0  0  0  0  0
   14.9998  -17.0508    0.0000 C   0  0  0  0  0  0  0  0  0  0  0  0
   17.0952  -12.9360    0.0000 C   0  0  0  0  0  0  0  0  0  0  0  0
   17.1135  -14.2330    0.0000 C   0  0  0  0  0  0  0  0  0  0  0  0
   12.6653   -8.7536    0.0000 C   0  0  0  0  0  0  0  0  0  0  0  0
   12.6701  -10.0764    0.0000 C   0  0  0  0  0  0  0  0  0  0  0  0
   13.8186   -8.0877    0.0000 C   0  0  0  0  0  0  0  0  0  0  0  0
   13.8169  -10.7471    0.0000 C   0  0  0  0  0  0  0  0  0  0  0  0
   14.9641   -8.7718    0.0000 C   0  0  0  0  0  0  0  0  0  0  0  0
   14.9796  -10.1017    0.0000 C   0  0  0  0  0  0  0  0  0  0  0  0
   16.1021  -10.8275    0.0000 C   0  0  0  0  0  0  0  0  0  0  0  0
   11.5334  -10.7911    0.0000 C   0  0  0  0  0  0  0  0  0  0  0  0
   16.0417  -12.1584    0.0000 O   0  0  0  0  0  0  0  0  0  0  0  0
   16.0807  -15.0306    0.0000 O   0  0  0  0  0  0  0  0  0  0  0  0
   13.8862  -16.3019    0.0000 O   0  0  0  0  0  0  0  0  0  0  0  0
   10.6823  -15.4522    0.0000 O   0  0  0  0  0  0  0  0  0  0  0  0
   11.5205  -12.0446    0.0000 O   0  0  0  0  0  0  0  0  0  0  0  0
   13.7865  -12.0770    0.0000 O   0  0  0  0  0  0  0  0  0  0  0  0
   13.8240   -6.7626    0.0000 N   0  0  0  0  0  0  0  0  0  0  0  0
   14.9741   -6.0974    0.0000 O   0  0  0  0  0  0  0  0  0  0  0  0
   12.6798   -6.0880    0.0000 O   0  0  0  0  0  0  0  0  0  0  0  0
  1  2  1  0
  3  4  1  0
  5  6  1  0
  7  8  1  0
 10  9  2  0
 11  9  1  0
 12 10  1  0
 13 11  2  0
 14 12  2  0
 14 13  1  0
 14 15  1  0
 10 16  1  0
 15 17  1  0
  7 17  1  0
  8 18  1  0
  5 18  1  0
  6 19  1  0
  3 19  1  0
  4 20  1  0
  1 20  1  0
 16 21  1  0
  2 21  1  0
 12 22  1  0
 11 23  1  0
 23 24  1  0
 23 25  2  0
M  CHG  2  23   1  24  -1
M  END
>  <Name>  (143) 
(1&3-B)-18C5-17

>  <logK_Dy_z=3.0_T=25_I=1.0>  (143) 
3.05

$$$$

     RDKit          2D

 30 29  0  0  0  0  0  0  0  0999 V2000
    9.4403  -10.8784    0.0000 N   0  0  0  0  0  0  0  0  0  0  0  0
   10.7097  -10.0818    0.0000 C   0  0  0  0  0  0  0  0  0  0  0  0
   12.0162  -10.7921    0.0000 C   0  0  0  0  0  0  0  0  0  0  0  0
   13.3222  -10.0614    0.0000 C   0  0  0  0  0  0  0  0  0  0  0  0
   14.6180  -10.8827    0.0000 N   0  0  0  0  0  0  0  0  0  0  0  0
   15.3243   -9.5205    0.0000 C   0  0  0  0  0  0  0  0  0  0  0  0
   16.7742   -9.3657    0.0000 C   0  0  0  0  0  0  0  0  0  0  0  0
   17.6333   -8.1703    0.0000 C   0  0  0  0  0  0  0  0  0  0  0  0
   19.1423   -8.2792    0.0000 N   0  0  0  0  0  0  0  0  0  0  0  0
   15.8080  -11.7662    0.0000 C   0  0  0  0  0  0  0  0  0  0  0  0
   15.9558  -13.2308    0.0000 C   0  0  0  0  0  0  0  0  0  0  0  0
   13.7546  -12.1439    0.0000 C   0  0  0  0  0  0  0  0  0  0  0  0
    8.1335  -10.1238    0.0000 C   0  0  0  0  0  0  0  0  0  0  0  0
    8.1175   -8.6213    0.0000 C   0  0  0  0  0  0  0  0  0  0  0  0
    9.4256  -12.3781    0.0000 C   0  0  0  0  0  0  0  0  0  0  0  0
    8.1366  -13.1500    0.0000 C   0  0  0  0  0  0  0  0  0  0  0  0
   19.9236   -9.5398    0.0000 C   0  0  0  0  0  0  0  0  0  0  0  0
   19.4200  -10.9239    0.0000 C   0  0  0  0  0  0  0  0  0  0  0  0
   19.9180   -6.9806    0.0000 C   0  0  0  0  0  0  0  0  0  0  0  0
   21.4163   -6.9638    0.0000 C   0  0  0  0  0  0  0  0  0  0  0  0
    9.3672   -7.7882    0.0000 O   0  0  0  0  0  0  0  0  0  0  0  0
    6.7796   -7.9165    0.0000 O   0  0  0  0  0  0  0  0  0  0  0  0
    6.7916  -12.4780    0.0000 O   0  0  0  0  0  0  0  0  0  0  0  0
    8.1881  -14.6605    0.0000 O   0  0  0  0  0  0  0  0  0  0  0  0
   17.3553  -13.8330    0.0000 O   0  0  0  0  0  0  0  0  0  0  0  0
   14.8602  -14.2708    0.0000 O   0  0  0  0  0  0  0  0  0  0  0  0
   20.3898  -12.1016    0.0000 O   0  0  0  0  0  0  0  0  0  0  0  0
   17.9999  -11.3144    0.0000 O   0  0  0  0  0  0  0  0  0  0  0  0
   22.2560   -8.2102    0.0000 O   0  0  0  0  0  0  0  0  0  0  0  0
   22.1226   -5.6261    0.0000 O   0  0  0  0  0  0  0  0  0  0  0  0
  1  2  1  0
  2  3  1  0
  3  4  1  0
  4  5  1  0
  5  6  1  0
  6  7  1  0
  7  8  1  0
  8  9  1  0
  5 10  1  0
 10 11  1  0
  5 12  1  0
  1 13  1  0
 13 14  1  0
  1 15  1  0
 15 16  1  0
  9 17  1  0
 17 18  1  0
  9 19  1  0
 19 20  1  0
 14 21  2  0
 14 22  1  0
 16 23  1  0
 16 24  2  0
 11 25  1  0
 11 26  2  0
 18 27  1  0
 18 28  2  0
 20 29  1  0
 20 30  2  0
M  CHG  1   5   1
M  END
>  <Name>  (144) 
(Bis[3-(bis(carboxymethyl)amino)propyllmethylammonio}acetate

>  <logK_Dy_z=3.0_T=25_I=1.0>  (144) 
9.0

$$$$

     RDKit          2D

 24 23  0  0  0  0  0  0  0  0999 V2000
   12.7091  -12.9934    0.0000 N   0  0  0  0  0  0  0  0  0  0  0  0
   14.6837  -14.1324    0.0000 C   0  0  0  0  0  0  0  0  0  0  0  0
   16.6273  -12.9934    0.0000 C   0  0  0  0  0  0  0  0  0  0  0  0
   18.6020  -14.1324    0.0000 N   0  0  0  0  0  0  0  0  0  0  0  0
   18.6020  -16.3953    0.0000 C   0  0  0  0  0  0  0  0  0  0  0  0
   20.5762  -17.5344    0.0000 C   0  0  0  0  0  0  0  0  0  0  0  0
   20.5762  -12.9934    0.0000 C   0  0  0  0  0  0  0  0  0  0  0  0
   20.5762  -10.7153    0.0000 C   0  0  0  0  0  0  0  0  0  0  0  0
   12.7091  -10.7153    0.0000 C   0  0  0  0  0  0  0  0  0  0  0  0
   10.7349   -9.5914    0.0000 C   0  0  0  0  0  0  0  0  0  0  0  0
   10.7349  -14.1324    0.0000 C   0  0  0  0  0  0  0  0  0  0  0  0
   10.7349  -16.4104    0.0000 C   0  0  0  0  0  0  0  0  0  0  0  0
    8.7607  -10.7304    0.0000 O   0  0  0  0  0  0  0  0  0  0  0  0
   10.7349   -7.3134    0.0000 O   0  0  0  0  0  0  0  0  0  0  0  0
   12.7091  -17.5344    0.0000 O   0  0  0  0  0  0  0  0  0  0  0  0
    8.7607  -17.5494    0.0000 O   0  0  0  0  0  0  0  0  0  0  0  0
   22.5504  -16.3953    0.0000 O   0  0  0  0  0  0  0  0  0  0  0  0
   20.5762  -19.8124    0.0000 O   0  0  0  0  0  0  0  0  0  0  0  0
   18.6020   -9.5763    0.0000 O   0  0  0  0  0  0  0  0  0  0  0  0
   22.5504   -9.5763    0.0000 O   0  0  0  0  0  0  0  0  0  0  0  0
   14.6837  -16.3953    0.0000 C   0  0  0  0  0  0  0  0  0  0  0  0
   16.6273  -17.5344    0.0000 C   0  0  0  0  0  0  0  0  0  0  0  0
   16.6273  -19.8124    0.0000 C   0  0  0  0  0  0  0  0  0  0  0  0
   14.6837  -20.9514    0.0000 C   0  0  0  0  0  0  0  0  0  0  0  0
  1  2  1  0
  2  3  1  0
  3  4  1  0
  4  5  1  0
  5  6  1  0
  4  7  1  0
  7  8  1  0
  1  9  1  0
  9 10  1  0
  1 11  1  0
 11 12  1  0
 10 13  1  0
 10 14  2  0
 12 15  2  0
 12 16  1  0
  6 17  2  0
  6 18  1  0
  8 19  1  0
  8 20  2  0
  2 21  1  0
 21 22  1  0
 22 23  1  0
 23 24  1  0
M  END
>  <Name>  (145) 
(Butyl-ethylene)dinitrilotetraacetic

>  <logK_Dy_z=3.0_T=25_I=1.0>  (145) 
19.4

$$$$

     RDKit          2D

 26 25  0  0  0  0  0  0  0  0999 V2000
   11.3022  -10.4112    0.0000 N   0  0  0  0  0  0  0  0  0  0  0  0
   13.2750  -11.5503    0.0000 C   0  0  0  0  0  0  0  0  0  0  0  0
   15.2479  -10.4112    0.0000 C   0  0  0  0  0  0  0  0  0  0  0  0
   17.2207  -11.5502    0.0000 N   0  0  0  0  0  0  0  0  0  0  0  0
   17.2207  -13.8283    0.0000 C   0  0  0  0  0  0  0  0  0  0  0  0
   19.1936  -14.9673    0.0000 C   0  0  0  0  0  0  0  0  0  0  0  0
   19.1935  -10.4112    0.0000 C   0  0  0  0  0  0  0  0  0  0  0  0
   19.1935   -8.1332    0.0000 C   0  0  0  0  0  0  0  0  0  0  0  0
   11.3022   -8.1332    0.0000 C   0  0  0  0  0  0  0  0  0  0  0  0
    9.3293   -6.9942    0.0000 C   0  0  0  0  0  0  0  0  0  0  0  0
    9.3293  -11.5503    0.0000 C   0  0  0  0  0  0  0  0  0  0  0  0
    9.3293  -13.8283    0.0000 C   0  0  0  0  0  0  0  0  0  0  0  0
    7.3565   -8.1332    0.0000 O   0  0  0  0  0  0  0  0  0  0  0  0
    9.3293   -4.7161    0.0000 O   0  0  0  0  0  0  0  0  0  0  0  0
   11.3022  -14.9673    0.0000 O   0  0  0  0  0  0  0  0  0  0  0  0
    7.3565  -14.9673    0.0000 O   0  0  0  0  0  0  0  0  0  0  0  0
   21.1664  -13.8283    0.0000 O   0  0  0  0  0  0  0  0  0  0  0  0
   19.1936  -17.2453    0.0000 O   0  0  0  0  0  0  0  0  0  0  0  0
   17.2207   -6.9942    0.0000 O   0  0  0  0  0  0  0  0  0  0  0  0
   21.1664   -6.9942    0.0000 O   0  0  0  0  0  0  0  0  0  0  0  0
   13.2750  -13.8283    0.0000 C   0  0  0  0  0  0  0  0  0  0  0  0
   15.2479  -14.9673    0.0000 C   0  0  0  0  0  0  0  0  0  0  0  0
   15.2479  -17.2453    0.0000 C   0  0  0  0  0  0  0  0  0  0  0  0
   17.2207  -18.3844    0.0000 C   0  0  0  0  0  0  0  0  0  0  0  0
   17.2207  -20.6624    0.0000 C   0  0  0  0  0  0  0  0  0  0  0  0
   19.1936  -21.8014    0.0000 C   0  0  0  0  0  0  0  0  0  0  0  0
  1  2  1  0
  2  3  1  0
  3  4  1  0
  4  5  1  0
  5  6  1  0
  4  7  1  0
  7  8  1  0
  1  9  1  0
  9 10  1  0
  1 11  1  0
 11 12  1  0
 10 13  1  0
 10 14  2  0
 12 15  2  0
 12 16  1  0
  6 17  2  0
  6 18  1  0
  8 19  1  0
  8 20  2  0
  2 21  1  0
 21 22  1  0
 22 23  1  0
 23 24  1  0
 24 25  1  0
 25 26  1  0
M  END
>  <Name>  (146) 
(Hexyl-ethylene)dinitrilotetraacetic

>  <logK_Dy_z=3.0_T=25_I=1.0>  (146) 
19.6

$$$$

     RDKit          2D

 23 22  0  0  0  0  0  0  0  0999 V2000
   11.5265   -9.7062    0.0000 N   0  0  0  0  0  0  0  0  0  0  0  0
   13.4994  -10.8452    0.0000 C   0  0  0  0  0  0  0  0  0  0  0  0
   15.4722   -9.7062    0.0000 C   0  0  0  0  0  0  0  0  0  0  0  0
   17.4450  -10.8452    0.0000 N   0  0  0  0  0  0  0  0  0  0  0  0
   17.4450  -13.1232    0.0000 C   0  0  0  0  0  0  0  0  0  0  0  0
   19.4179  -14.2622    0.0000 C   0  0  0  0  0  0  0  0  0  0  0  0
   19.4179   -9.7062    0.0000 C   0  0  0  0  0  0  0  0  0  0  0  0
   19.4179   -7.4281    0.0000 C   0  0  0  0  0  0  0  0  0  0  0  0
   11.5265   -7.4281    0.0000 C   0  0  0  0  0  0  0  0  0  0  0  0
    9.5537   -6.2891    0.0000 C   0  0  0  0  0  0  0  0  0  0  0  0
    9.5537  -10.8452    0.0000 C   0  0  0  0  0  0  0  0  0  0  0  0
    9.5537  -13.1232    0.0000 C   0  0  0  0  0  0  0  0  0  0  0  0
    7.5808   -7.4281    0.0000 O   0  0  0  0  0  0  0  0  0  0  0  0
    9.5537   -4.0111    0.0000 O   0  0  0  0  0  0  0  0  0  0  0  0
   11.5265  -14.2622    0.0000 O   0  0  0  0  0  0  0  0  0  0  0  0
    7.5808  -14.2622    0.0000 O   0  0  0  0  0  0  0  0  0  0  0  0
   21.3907  -13.1232    0.0000 O   0  0  0  0  0  0  0  0  0  0  0  0
   19.4179  -16.5403    0.0000 O   0  0  0  0  0  0  0  0  0  0  0  0
   17.4450   -6.2891    0.0000 O   0  0  0  0  0  0  0  0  0  0  0  0
   21.3907   -6.2891    0.0000 O   0  0  0  0  0  0  0  0  0  0  0  0
   13.4994  -13.1232    0.0000 C   0  0  0  0  0  0  0  0  0  0  0  0
   15.4722  -14.2622    0.0000 C   0  0  0  0  0  0  0  0  0  0  0  0
   15.4722  -16.5403    0.0000 C   0  0  0  0  0  0  0  0  0  0  0  0
  1  2  1  0
  2  3  1  0
  3  4  1  0
  4  5  1  0
  5  6  1  0
  4  7  1  0
  7  8  1  0
  1  9  1  0
  9 10  1  0
  1 11  1  0
 11 12  1  0
 10 13  1  0
 10 14  2  0
 12 15  2  0
 12 16  1  0
  6 17  2  0
  6 18  1  0
  8 19  1  0
  8 20  2  0
  2 21  1  0
 21 22  1  0
 22 23  1  0
M  END
>  <Name>  (147) 
(Propyl-ethylene)dinitrilotetraacetic

>  <logK_Dy_z=3.0_T=25_I=1.0>  (147) 
19.5

$$$$

     RDKit          2D

 26 26  0  0  0  0  0  0  0  0999 V2000
   12.7764  -18.0600    0.0000 N   0  0  0  0  0  0  0  0  0  0  0  0
   14.1926  -15.6466    0.0000 C   0  0  0  0  0  0  0  0  0  0  0  0
   12.7764  -13.2333    0.0000 C   0  0  0  0  0  0  0  0  0  0  0  0
   14.1926  -10.8200    0.0000 O   0  0  0  0  0  0  0  0  0  0  0  0
   16.9672  -10.8200    0.0000 C   0  0  0  0  0  0  0  0  0  0  0  0
   18.3400   -8.4066    0.0000 C   0  0  0  0  0  0  0  0  0  0  0  0
   21.1291   -8.4066    0.0000 O   0  0  0  0  0  0  0  0  0  0  0  0
   22.5019  -10.8200    0.0000 C   0  0  0  0  0  0  0  0  0  0  0  0
   25.3199  -10.8200    0.0000 C   0  0  0  0  0  0  0  0  0  0  0  0
   26.6928  -13.2333    0.0000 N   0  0  0  0  0  0  0  0  0  0  0  0
   25.3199  -15.6466    0.0000 C   0  0  0  0  0  0  0  0  0  0  0  0
   26.6928  -18.0600    0.0000 C   0  0  0  0  0  0  0  0  0  0  0  0
   25.3199  -20.4444    0.0000 O   0  0  0  0  0  0  0  0  0  0  0  0
   22.5019  -20.4444    0.0000 C   0  0  0  0  0  0  0  0  0  0  0  0
   21.1291  -22.8577    0.0000 C   0  0  0  0  0  0  0  0  0  0  0  0
   18.3400  -22.8577    0.0000 O   0  0  0  0  0  0  0  0  0  0  0  0
   16.9672  -20.4444    0.0000 C   0  0  0  0  0  0  0  0  0  0  0  0
   14.1926  -20.4444    0.0000 C   0  0  0  0  0  0  0  0  0  0  0  0
   29.3242  -12.3233    0.0000 C   0  0  0  0  0  0  0  0  0  0  0  0
   31.4280  -14.1472    0.0000 C   0  0  0  0  0  0  0  0  0  0  0  0
   10.1466  -18.9747    0.0000 C   0  0  0  0  0  0  0  0  0  0  0  0
    8.0395  -17.1547    0.0000 C   0  0  0  0  0  0  0  0  0  0  0  0
    8.5622  -14.4198    0.0000 O   0  0  0  0  0  0  0  0  0  0  0  0
    5.4097  -18.0694    0.0000 O   0  0  0  0  0  0  0  0  0  0  0  0
   34.0594  -13.2372    0.0000 O   0  0  0  0  0  0  0  0  0  0  0  0
   30.9004  -16.8811    0.0000 O   0  0  0  0  0  0  0  0  0  0  0  0
  1  2  1  0
  2  3  1  0
  3  4  1  0
  4  5  1  0
  5  6  1  0
  6  7  1  0
  7  8  1  0
  8  9  1  0
  9 10  1  0
 10 11  1  0
 11 12  1  0
 12 13  1  0
 13 14  1  0
 14 15  1  0
 15 16  1  0
 16 17  1  0
 17 18  1  0
 18  1  1  0
 10 19  1  0
 19 20  1  0
  1 21  1  0
 21 22  1  0
 22 23  2  0
 22 24  1  0
 20 25  1  0
 20 26  2  0
M  END
>  <Name>  (148) 
1&4&10&13-Tetraoxa-7&16-diazacyclooctadecane-7&16-diethanoic

>  <logK_Dy_z=3.0_T=25_I=1.0>  (148) 
11.57

$$$$

     RDKit          2D

 23 23  0  0  0  0  0  0  0  0999 V2000
   19.1293  -13.3901    0.0000 C   0  0  0  0  0  0  0  0  0  0  0  0
   20.3947  -12.4080    0.0000 C   0  0  0  0  0  0  0  0  0  0  0  0
   16.7300  -14.0802    0.0000 C   0  0  0  0  0  0  0  0  0  0  0  0
   15.2216  -13.6600    0.0000 C   0  0  0  0  0  0  0  0  0  0  0  0
   17.6254  -10.1886    0.0000 C   0  0  0  0  0  0  0  0  0  0  0  0
   16.7300  -11.4904    0.0000 C   0  0  0  0  0  0  0  0  0  0  0  0
   17.6461  -12.7853    0.0000 N   0  0  0  0  0  0  0  0  0  0  0  0
   12.6801  -12.8266    0.0000 C   0  0  0  0  0  0  0  0  0  0  0  0
   12.6801  -14.4452    0.0000 C   0  0  0  0  0  0  0  0  0  0  0  0
   12.6663  -10.1542    0.0000 C   0  0  0  0  0  0  0  0  0  0  0  0
   11.1372  -10.7052    0.0000 C   0  0  0  0  0  0  0  0  0  0  0  0
   11.1372  -12.3238    0.0000 N   0  0  0  0  0  0  0  0  0  0  0  0
    9.5818  -12.7062    0.0000 C   0  0  0  0  0  0  0  0  0  0  0  0
    8.4729  -11.5503    0.0000 C   0  0  0  0  0  0  0  0  0  0  0  0
   14.2298   -8.0535    0.0000 C   0  0  0  0  0  0  0  0  0  0  0  0
   15.2010   -9.3483    0.0000 C   0  0  0  0  0  0  0  0  0  0  0  0
   12.7007   -8.5700    0.0000 O   0  0  0  0  0  0  0  0  0  0  0  0
   16.7300   -8.9144    0.0000 O   0  0  0  0  0  0  0  0  0  0  0  0
   14.2642  -14.9411    0.0000 O   0  0  0  0  0  0  0  0  0  0  0  0
   20.1768  -10.8211    0.0000 O   0  0  0  0  0  0  0  0  0  0  0  0
   21.8779  -13.0128    0.0000 O   0  0  0  0  0  0  0  0  0  0  0  0
    8.9195  -10.0120    0.0000 O   0  0  0  0  0  0  0  0  0  0  0  0
    6.9174  -11.9327    0.0000 O   0  0  0  0  0  0  0  0  0  0  0  0
  1  2  1  0
  3  4  1  0
  5  6  1  0
  6  7  1  0
  3  7  1  0
  1  7  1  0
  8  9  1  0
 10 11  1  0
 11 12  1  0
  8 12  1  0
 13 14  1  0
 12 13  1  0
 15 16  1  0
 15 17  1  0
 10 17  1  0
 16 18  1  0
  5 18  1  0
  4 19  1  0
  9 19  1  0
  2 20  2  0
  2 21  1  0
 14 22  2  0
 14 23  1  0
M  END
>  <Name>  (149) 
1&4&10-Trioxa-7&13-diazacyclopentadecane-7&13-diethanoic

>  <logK_Dy_z=3.0_T=25_I=1.0>  (149) 
11.55

$$$$

     RDKit          2D

 18 18  0  0  0  0  0  0  0  0999 V2000
    8.5108  -14.7466    0.0000 C   0  0  0  0  0  0  0  0  0  0  0  0
    6.7277  -13.7171    0.0000 C   0  0  0  0  0  0  0  0  0  0  0  0
   13.8386  -13.7329    0.0000 C   0  0  0  0  0  0  0  0  0  0  0  0
   12.0808  -14.7506    0.0000 C   0  0  0  0  0  0  0  0  0  0  0  0
   15.6333   -8.5975    0.0000 C   0  0  0  0  0  0  0  0  0  0  0  0
   15.6202  -10.6471    0.0000 C   0  0  0  0  0  0  0  0  0  0  0  0
   12.0617   -4.4783    0.0000 C   0  0  0  0  0  0  0  0  0  0  0  0
   13.8448   -5.5078    0.0000 C   0  0  0  0  0  0  0  0  0  0  0  0
    4.9417   -8.5962    0.0000 C   0  0  0  0  0  0  0  0  0  0  0  0
    4.9670  -10.6434    0.0000 C   0  0  0  0  0  0  0  0  0  0  0  0
    6.7232   -5.5105    0.0000 C   0  0  0  0  0  0  0  0  0  0  0  0
    8.5194   -4.4904    0.0000 C   0  0  0  0  0  0  0  0  0  0  0  0
    6.7379   -7.5761    0.0000 O   0  0  0  0  0  0  0  0  0  0  0  0
   10.2933   -5.5145    0.0000 O   0  0  0  0  0  0  0  0  0  0  0  0
   13.8317   -7.5574    0.0000 O   0  0  0  0  0  0  0  0  0  0  0  0
   13.8517  -11.6833    0.0000 O   0  0  0  0  0  0  0  0  0  0  0  0
   10.2793  -13.7104    0.0000 O   0  0  0  0  0  0  0  0  0  0  0  0
    6.7408  -11.6675    0.0000 O   0  0  0  0  0  0  0  0  0  0  0  0
  1  2  1  0
  3  4  1  0
  5  6  1  0
  7  8  1  0
  9 10  1  0
 11 12  1  0
 11 13  1  0
  9 13  1  0
 12 14  1  0
  7 14  1  0
  8 15  1  0
  5 15  1  0
  6 16  1  0
  3 16  1  0
  4 17  1  0
  1 17  1  0
  2 18  1  0
 10 18  1  0
M  END
>  <Name>  (150) 
18C6-1

>  <logK_Dy_z=3.0_T=25_I=1.0>  (150) 
3.68

$$$$

     RDKit          2D

 14 13  0  0  0  0  0  0  0  0999 V2000
   14.7383   -9.4910    0.0000 N   0  0  0  0  0  0  0  0  0  0  0  0
   16.0604   -9.4950    0.0000 C   0  0  0  0  0  0  0  0  0  0  0  0
   16.7205  -10.6384    0.0000 C   0  0  0  0  0  0  0  0  0  0  0  0
   16.7258   -8.3436    0.0000 C   0  0  0  0  0  0  0  0  0  0  0  0
   16.0612   -7.1923    0.0000 C   0  0  0  0  0  0  0  0  0  0  0  0
   18.0559   -8.3429    0.0000 O   0  0  0  0  0  0  0  0  0  0  0  0
   16.0674  -11.7931    0.0000 C   0  0  0  0  0  0  0  0  0  0  0  0
   18.0505  -10.6380    0.0000 O   0  0  0  0  0  0  0  0  0  0  0  0
   14.0807  -10.6380    0.0000 C   0  0  0  0  0  0  0  0  0  0  0  0
   12.7552  -10.6462    0.0000 C   0  0  0  0  0  0  0  0  0  0  0  0
   14.7453  -11.7890    0.0000 C   0  0  0  0  0  0  0  0  0  0  0  0
   14.0799  -12.9406    0.0000 C   0  0  0  0  0  0  0  0  0  0  0  0
   12.0906   -9.4950    0.0000 C   0  0  0  0  0  0  0  0  0  0  0  0
   12.0852  -11.7901    0.0000 O   0  0  0  0  0  0  0  0  0  0  0  0
  1  2  1  0
  2  3  1  0
  2  4  1  0
  4  5  1  0
  4  6  2  0
  3  7  1  0
  3  8  2  0
  1  9  1  0
  9 10  1  0
  9 11  1  0
 11 12  1  0
 10 13  1  0
 10 14  2  0
M  END
>  <Name>  (151) 
1-carboxypropylaminomalonic

>  <logK_Dy_z=3.0_T=25_I=1.0>  (151) 
9.0

$$$$

     RDKit          2D

 22 23  0  0  0  0  0  0  0  0999 V2000
   11.6175   -9.8869    0.0000 C   0  0  0  0  0  0  0  0  0  0  0  0
   11.6175  -11.2169    0.0000 C   0  0  0  0  0  0  0  0  0  0  0  0
   10.4657   -9.2219    0.0000 C   0  0  0  0  0  0  0  0  0  0  0  0
   10.4657  -11.8819    0.0000 C   0  0  0  0  0  0  0  0  0  0  0  0
    9.3138   -9.8869    0.0000 C   0  0  0  0  0  0  0  0  0  0  0  0
    9.3138  -11.2169    0.0000 C   0  0  0  0  0  0  0  0  0  0  0  0
   13.9211   -9.8869    0.0000 C   0  0  0  0  0  0  0  0  0  0  0  0
   13.9211  -11.2169    0.0000 C   0  0  0  0  0  0  0  0  0  0  0  0
   12.7693   -9.2219    0.0000 C   0  0  0  0  0  0  0  0  0  0  0  0
   12.7693  -11.8819    0.0000 C   0  0  0  0  0  0  0  0  0  0  0  0
   15.0729   -9.2219    0.0000 C   0  0  0  0  0  0  0  0  0  0  0  0
   12.7693  -13.2119    0.0000 S   0  0  0  0  0  0  0  0  0  0  0  0
    8.1620   -9.2219    0.0000 S   0  0  0  0  0  0  0  0  0  0  0  0
   12.7693   -7.8919    0.0000 O   0  0  0  0  0  0  0  0  0  0  0  0
   15.0729   -7.8919    0.0000 O   0  0  0  0  0  0  0  0  0  0  0  0
   16.2247   -9.8869    0.0000 O   0  0  0  0  0  0  0  0  0  0  0  0
   14.0993  -13.2119    0.0000 O   0  0  0  0  0  0  0  0  0  0  0  0
   11.4393  -13.2119    0.0000 O   0  0  0  0  0  0  0  0  0  0  0  0
   12.7693  -14.5419    0.0000 O   0  0  0  0  0  0  0  0  0  0  0  0
    8.8270   -8.0701    0.0000 O   0  0  0  0  0  0  0  0  0  0  0  0
    7.4970  -10.3737    0.0000 O   0  0  0  0  0  0  0  0  0  0  0  0
    7.0102   -8.5569    0.0000 O   0  0  0  0  0  0  0  0  0  0  0  0
  3  1  2  0
  4  2  2  0
  5  3  1  0
  6  4  1  0
  6  5  2  0
  8  7  1  0
  9  7  2  0
 10  8  2  0
  1  9  1  0
  2 10  1  0
  2  1  1  0
  7 11  1  0
 10 12  1  0
  5 13  1  0
  9 14  1  0
 11 15  2  0
 11 16  1  0
 12 17  2  0
 12 18  2  0
 12 19  1  0
 13 20  2  0
 13 21  2  0
 13 22  1  0
M  END
>  <Name>  (152) 
1-Hydroxy-4&7-disulfo-2-naphthoic

>  <logK_Dy_z=3.0_T=25_I=1.0>  (152) 
8.95

$$$$

     RDKit          2D

 18 19  0  0  0  0  0  0  0  0999 V2000
   11.7646  -10.0151    0.0000 C   0  0  0  0  0  0  0  0  0  0  0  0
   11.7646  -11.3451    0.0000 C   0  0  0  0  0  0  0  0  0  0  0  0
   10.6127   -9.3501    0.0000 C   0  0  0  0  0  0  0  0  0  0  0  0
   10.6127  -12.0101    0.0000 C   0  0  0  0  0  0  0  0  0  0  0  0
    9.4609  -10.0151    0.0000 C   0  0  0  0  0  0  0  0  0  0  0  0
    9.4609  -11.3451    0.0000 C   0  0  0  0  0  0  0  0  0  0  0  0
   14.0682  -10.0151    0.0000 C   0  0  0  0  0  0  0  0  0  0  0  0
   14.0682  -11.3451    0.0000 C   0  0  0  0  0  0  0  0  0  0  0  0
   12.9164   -9.3501    0.0000 C   0  0  0  0  0  0  0  0  0  0  0  0
   12.9164  -12.0101    0.0000 C   0  0  0  0  0  0  0  0  0  0  0  0
   15.2200   -9.3501    0.0000 C   0  0  0  0  0  0  0  0  0  0  0  0
   12.9164  -13.3401    0.0000 S   0  0  0  0  0  0  0  0  0  0  0  0
   12.9164   -8.0201    0.0000 O   0  0  0  0  0  0  0  0  0  0  0  0
   15.2200   -8.0201    0.0000 O   0  0  0  0  0  0  0  0  0  0  0  0
   16.3718  -10.0151    0.0000 O   0  0  0  0  0  0  0  0  0  0  0  0
   14.2464  -13.3401    0.0000 O   0  0  0  0  0  0  0  0  0  0  0  0
   11.5864  -13.3401    0.0000 O   0  0  0  0  0  0  0  0  0  0  0  0
   12.9164  -14.6701    0.0000 O   0  0  0  0  0  0  0  0  0  0  0  0
  3  1  2  0
  4  2  2  0
  5  3  1  0
  6  4  1  0
  6  5  2  0
  8  7  1  0
  9  7  2  0
 10  8  2  0
  1  9  1  0
  2 10  1  0
  2  1  1  0
  7 11  1  0
 10 12  1  0
  9 13  1  0
 11 14  2  0
 11 15  1  0
 12 16  2  0
 12 17  2  0
 12 18  1  0
M  END
>  <Name>  (153) 
1-Hydroxy-4-sulfo-2-naphthoic

>  <logK_Dy_z=3.0_T=25_I=1.0>  (153) 
8.872

$$$$

     RDKit          2D

 17 18  0  0  0  0  0  0  0  0999 V2000
   13.0987   -8.3125    0.0000 C   0  0  0  0  0  0  0  0  0  0  0  0
   13.0987   -9.6425    0.0000 C   0  0  0  0  0  0  0  0  0  0  0  0
   11.9469   -7.6475    0.0000 C   0  0  0  0  0  0  0  0  0  0  0  0
   11.9469  -10.3074    0.0000 C   0  0  0  0  0  0  0  0  0  0  0  0
   10.7951   -8.3125    0.0000 C   0  0  0  0  0  0  0  0  0  0  0  0
   10.7951   -9.6425    0.0000 C   0  0  0  0  0  0  0  0  0  0  0  0
   14.2505   -7.6475    0.0000 C   0  0  0  0  0  0  0  0  0  0  0  0
   15.4023   -8.3125    0.0000 C   0  0  0  0  0  0  0  0  0  0  0  0
   14.2505  -10.3074    0.0000 C   0  0  0  0  0  0  0  0  0  0  0  0
   15.4023   -9.6425    0.0000 C   0  0  0  0  0  0  0  0  0  0  0  0
   14.2505   -6.3175    0.0000 N   0  0  0  0  0  0  0  0  0  0  0  0
    9.6434   -7.6475    0.0000 S   0  0  0  0  0  0  0  0  0  0  0  0
   10.3083   -6.4957    0.0000 O   0  0  0  0  0  0  0  0  0  0  0  0
    8.9784   -8.7993    0.0000 O   0  0  0  0  0  0  0  0  0  0  0  0
    8.4916   -6.9825    0.0000 O   0  0  0  0  0  0  0  0  0  0  0  0
   15.4023   -5.6526    0.0000 O   0  0  0  0  0  0  0  0  0  0  0  0
   16.5541   -7.6475    0.0000 O   0  0  0  0  0  0  0  0  0  0  0  0
  3  1  2  0
  4  2  2  0
  5  3  1  0
  6  4  1  0
  6  5  2  0
  7  1  1  0
  2  1  1  0
  8  7  2  0
  9  2  1  0
 10  8  1  0
 10  9  2  0
  7 11  1  0
  5 12  1  0
 12 13  2  0
 12 14  2  0
 12 15  1  0
 11 16  2  0
  8 17  1  0
M  END
>  <Name>  (154) 
1-Nitroso-2-naphthol-7-sulfonic

>  <logK_Dy_z=3.0_T=25_I=1.0>  (154) 
4.36

$$$$

     RDKit          2D

 12 13  0  0  0  0  0  0  0  0999 V2000
   25.5413  -11.1177    0.0000 C   0  0  0  0  0  0  0  0  0  0  0  0
   25.5413  -12.4477    0.0000 C   0  0  0  0  0  0  0  0  0  0  0  0
   24.3895  -10.4527    0.0000 C   0  0  0  0  0  0  0  0  0  0  0  0
   24.3895  -13.1127    0.0000 N   0  0  0  0  0  0  0  0  0  0  0  0
   23.2377  -11.1177    0.0000 C   0  0  0  0  0  0  0  0  0  0  0  0
   23.2377  -12.4477    0.0000 C   0  0  0  0  0  0  0  0  0  0  0  0
   22.0859  -13.1127    0.0000 C   0  0  0  0  0  0  0  0  0  0  0  0
   22.0859  -14.4427    0.0000 N   0  0  0  0  0  0  0  0  0  0  0  0
   20.9341  -12.4477    0.0000 C   0  0  0  0  0  0  0  0  0  0  0  0
   20.9341  -15.1077    0.0000 C   0  0  0  0  0  0  0  0  0  0  0  0
   19.7823  -13.1127    0.0000 C   0  0  0  0  0  0  0  0  0  0  0  0
   19.7823  -14.4427    0.0000 C   0  0  0  0  0  0  0  0  0  0  0  0
  2  1  2  0
  3  1  1  0
  4  2  1  0
  5  3  2  0
  6  4  2  0
  6  5  1  0
  8  7  2  0
  9  7  1  0
 10  8  1  0
 11  9  2  0
 12 10  2  0
 12 11  1  0
  6  7  1  0
M  END
>  <Name>  (155) 
2&2'-Bipyridine

>  <logK_Dy_z=3.0_T=25_I=1.0>  (155) 
4.33

$$$$

     RDKit          2D

 23 22  0  0  0  0  0  0  0  0999 V2000
   13.8170  -13.6117    0.0000 N   0  0  0  0  0  0  0  0  0  0  0  0
   15.5555  -12.1355    0.0000 C   0  0  0  0  0  0  0  0  0  0  0  0
   17.6795  -12.9040    0.0000 C   0  0  0  0  0  0  0  0  0  0  0  0
   19.4259  -11.4413    0.0000 N   0  0  0  0  0  0  0  0  0  0  0  0
   19.0134   -9.2112    0.0000 C   0  0  0  0  0  0  0  0  0  0  0  0
   20.7593   -7.7478    0.0000 C   0  0  0  0  0  0  0  0  0  0  0  0
   21.5499  -12.2097    0.0000 C   0  0  0  0  0  0  0  0  0  0  0  0
   21.9626  -14.4402    0.0000 C   0  0  0  0  0  0  0  0  0  0  0  0
   14.6029  -15.7308    0.0000 C   0  0  0  0  0  0  0  0  0  0  0  0
   16.8405  -16.1192    0.0000 C   0  0  0  0  0  0  0  0  0  0  0  0
   11.6850  -12.8293    0.0000 C   0  0  0  0  0  0  0  0  0  0  0  0
    9.9466  -14.3059    0.0000 C   0  0  0  0  0  0  0  0  0  0  0  0
   18.2841  -14.3758    0.0000 O   0  0  0  0  0  0  0  0  0  0  0  0
   17.6211  -18.2593    0.0000 O   0  0  0  0  0  0  0  0  0  0  0  0
   10.3456  -16.5438    0.0000 O   0  0  0  0  0  0  0  0  0  0  0  0
    7.8011  -13.5314    0.0000 O   0  0  0  0  0  0  0  0  0  0  0  0
   22.8972   -8.5092    0.0000 O   0  0  0  0  0  0  0  0  0  0  0  0
   20.3527   -5.4968    0.0000 O   0  0  0  0  0  0  0  0  0  0  0  0
   20.2165  -15.9033    0.0000 O   0  0  0  0  0  0  0  0  0  0  0  0
   24.0868  -15.2091    0.0000 O   0  0  0  0  0  0  0  0  0  0  0  0
   15.1428   -9.9051    0.0000 C   0  0  0  0  0  0  0  0  0  0  0  0
   16.8889   -8.4420    0.0000 O   0  0  0  0  0  0  0  0  0  0  0  0
   13.0186   -9.1362    0.0000 O   0  0  0  0  0  0  0  0  0  0  0  0
  1  2  1  0
  2  3  1  0
  3  4  1  0
  4  5  1  0
  5  6  1  0
  4  7  1  0
  7  8  1  0
  1  9  1  0
  9 10  1  0
  1 11  1  0
 11 12  1  0
 10 13  1  0
 10 14  2  0
 12 15  2  0
 12 16  1  0
  6 17  2  0
  6 18  1  0
  8 19  1  0
  8 20  2  0
  2 21  1  0
 21 22  1  0
 21 23  2  0
M  END
>  <Name>  (156) 
2&3-Diaminopropanoic-N&N&N'&N'-tetraacetic

>  <logK_Dy_z=3.0_T=25_I=1.0>  (156) 
16.27

$$$$

     RDKit          2D

 21 20  0  0  0  0  0  0  0  0999 V2000
   13.4898   -9.1030    0.0000 N   0  0  0  0  0  0  0  0  0  0  0  0
   15.3755  -10.2080    0.0000 C   0  0  0  0  0  0  0  0  0  0  0  0
   17.2740   -9.1119    0.0000 C   0  0  0  0  0  0  0  0  0  0  0  0
   19.1580  -10.1835    0.0000 N   0  0  0  0  0  0  0  0  0  0  0  0
   17.2731   -6.9187    0.0000 C   0  0  0  0  0  0  0  0  0  0  0  0
   11.5913  -10.1991    0.0000 C   0  0  0  0  0  0  0  0  0  0  0  0
   11.5922  -12.3923    0.0000 C   0  0  0  0  0  0  0  0  0  0  0  0
    9.6926   -9.1020    0.0000 C   0  0  0  0  0  0  0  0  0  0  0  0
   19.1589  -12.3767    0.0000 C   0  0  0  0  0  0  0  0  0  0  0  0
   17.2604  -13.4728    0.0000 C   0  0  0  0  0  0  0  0  0  0  0  0
   21.0577  -13.4738    0.0000 C   0  0  0  0  0  0  0  0  0  0  0  0
   15.3747  -12.3678    0.0000 O   0  0  0  0  0  0  0  0  0  0  0  0
   17.2744  -15.6580    0.0000 O   0  0  0  0  0  0  0  0  0  0  0  0
   21.0584  -15.6667    0.0000 O   0  0  0  0  0  0  0  0  0  0  0  0
   22.9558  -12.3779    0.0000 O   0  0  0  0  0  0  0  0  0  0  0  0
   19.1712   -5.8228    0.0000 O   0  0  0  0  0  0  0  0  0  0  0  0
   15.3743   -5.8217    0.0000 O   0  0  0  0  0  0  0  0  0  0  0  0
   13.4763  -13.4638    0.0000 O   0  0  0  0  0  0  0  0  0  0  0  0
    9.6941  -13.4882    0.0000 O   0  0  0  0  0  0  0  0  0  0  0  0
    9.6919   -6.9091    0.0000 O   0  0  0  0  0  0  0  0  0  0  0  0
    7.7944  -10.1979    0.0000 O   0  0  0  0  0  0  0  0  0  0  0  0
  1  2  1  0
  2  3  1  0
  3  4  1  0
  3  5  1  0
  1  6  1  0
  6  7  1  0
  6  8  1  0
  4  9  1  0
  9 10  1  0
  9 11  1  0
 10 12  1  0
 10 13  2  0
 11 14  1  0
 11 15  2  0
  5 16  2  0
  5 17  1  0
  7 18  2  0
  7 19  1  0
  8 20  2  0
  8 21  1  0
M  END
>  <Name>  (157) 
2&3-Diaminopropanoic-N&N'-dimalonic

>  <logK_Dy_z=3.0_T=25_I=1.0>  (157) 
12.25

$$$$

     RDKit          2D

  8  7  0  0  0  0  0  0  0  0999 V2000
   10.4986  -10.4474    0.0000 C   0  0  0  0  0  0  0  0  0  0  0  0
   10.4986   -8.4715    0.0000 C   0  0  0  0  0  0  0  0  0  0  0  0
    8.5226   -8.4715    0.0000 C   0  0  0  0  0  0  0  0  0  0  0  0
   12.4745   -8.4715    0.0000 C   0  0  0  0  0  0  0  0  0  0  0  0
   13.4624   -6.7603    0.0000 O   0  0  0  0  0  0  0  0  0  0  0  0
   13.4624  -10.1827    0.0000 O   0  0  0  0  0  0  0  0  0  0  0  0
   10.4986   -6.4956    0.0000 O   0  0  0  0  0  0  0  0  0  0  0  0
    8.7874  -11.4354    0.0000 O   0  0  0  0  0  0  0  0  0  0  0  0
  1  2  1  0
  2  3  1  0
  2  4  1  0
  4  5  2  0
  4  6  1  0
  2  7  1  0
  1  8  1  0
M  END
>  <Name>  (158) 
2&3-Dihydroxy-2-methylpropanoic

>  <logK_Dy_z=3.0_T=25_I=1.0>  (158) 
3.07

$$$$

     RDKit          2D

 10  9  0  0  0  0  0  0  0  0999 V2000
   12.7960  -10.1904    0.0000 C   0  0  0  0  0  0  0  0  0  0  0  0
   14.1409  -10.1904    0.0000 C   0  0  0  0  0  0  0  0  0  0  0  0
   12.0216   -9.1194    0.0000 C   0  0  0  0  0  0  0  0  0  0  0  0
   12.0737  -11.3000    0.0000 C   0  0  0  0  0  0  0  0  0  0  0  0
   14.0087   -8.8960    0.0000 C   0  0  0  0  0  0  0  0  0  0  0  0
   14.8369   -7.9288    0.0000 C   0  0  0  0  0  0  0  0  0  0  0  0
   15.4701  -10.2727    0.0000 C   0  0  0  0  0  0  0  0  0  0  0  0
   14.0815  -11.5278    0.0000 O   0  0  0  0  0  0  0  0  0  0  0  0
   16.1061  -11.4408    0.0000 O   0  0  0  0  0  0  0  0  0  0  0  0
   16.3275   -9.2779    0.0000 O   0  0  0  0  0  0  0  0  0  0  0  0
  1  2  1  0
  1  3  1  0
  1  4  1  0
  2  5  1  0
  5  6  1  0
  2  7  1  0
  2  8  1  0
  7  9  2  0
  7 10  1  0
M  END
>  <Name>  (159) 
2-Ethyl-2-hydroxy-3-methylbutanoic

>  <logK_Dy_z=3.0_T=25_I=1.0>  (159) 
2.86

$$$$

     RDKit          2D

 19 18  0  0  0  0  0  0  0  0999 V2000
   15.6797  -10.1296    0.0000 N   0  0  0  0  0  0  0  0  0  0  0  0
   16.3447   -8.9778    0.0000 C   0  0  0  0  0  0  0  0  0  0  0  0
   17.6747   -8.9778    0.0000 C   0  0  0  0  0  0  0  0  0  0  0  0
   18.3397   -7.8260    0.0000 C   0  0  0  0  0  0  0  0  0  0  0  0
   18.3397  -10.1296    0.0000 O   0  0  0  0  0  0  0  0  0  0  0  0
   16.3447  -11.2815    0.0000 C   0  0  0  0  0  0  0  0  0  0  0  0
   15.6797  -12.4333    0.0000 C   0  0  0  0  0  0  0  0  0  0  0  0
   16.3447  -13.5851    0.0000 C   0  0  0  0  0  0  0  0  0  0  0  0
   14.3497  -12.4333    0.0000 O   0  0  0  0  0  0  0  0  0  0  0  0
   14.3497  -10.1296    0.0000 C   0  0  0  0  0  0  0  0  0  0  0  0
   13.6847   -8.9778    0.0000 C   0  0  0  0  0  0  0  0  0  0  0  0
   13.6847  -11.2815    0.0000 C   0  0  0  0  0  0  0  0  0  0  0  0
   14.3497   -7.8260    0.0000 O   0  0  0  0  0  0  0  0  0  0  0  0
   12.3547   -8.9778    0.0000 C   0  0  0  0  0  0  0  0  0  0  0  0
   12.3547  -11.2815    0.0000 C   0  0  0  0  0  0  0  0  0  0  0  0
   11.6897  -12.4333    0.0000 C   0  0  0  0  0  0  0  0  0  0  0  0
   10.3597  -12.4333    0.0000 C   0  0  0  0  0  0  0  0  0  0  0  0
    9.6947  -13.5851    0.0000 C   0  0  0  0  0  0  0  0  0  0  0  0
    8.3647  -13.5851    0.0000 C   0  0  0  0  0  0  0  0  0  0  0  0
  1  2  1  0
  2  3  1  0
  3  4  1  0
  3  5  2  0
  1  6  1  0
  6  7  1  0
  7  8  1  0
  7  9  2  0
  1 10  1  0
 10 11  1  0
 10 12  1  0
 11 13  2  0
 11 14  1  0
 12 15  1  0
 15 16  1  0
 16 17  1  0
 17 18  1  0
 18 19  1  0
M  END
>  <Name>  (160) 
2-Hexylnitrilotriacetic

>  <logK_Dy_z=3.0_T=25_I=1.0>  (160) 
11.34

$$$$

     RDKit          2D

  8  7  0  0  0  0  0  0  0  0999 V2000
    9.6735   -8.4988    0.0000 C   0  0  0  0  0  0  0  0  0  0  0  0
   11.0526   -7.7026    0.0000 C   0  0  0  0  0  0  0  0  0  0  0  0
   12.4555   -8.5286    0.0000 C   0  0  0  0  0  0  0  0  0  0  0  0
   13.8730   -9.3117    0.0000 C   0  0  0  0  0  0  0  0  0  0  0  0
   11.6659   -9.9458    0.0000 C   0  0  0  0  0  0  0  0  0  0  0  0
   13.1603   -7.0669    0.0000 O   0  0  0  0  0  0  0  0  0  0  0  0
   13.9908  -10.9122    0.0000 O   0  0  0  0  0  0  0  0  0  0  0  0
   15.2761   -8.5303    0.0000 O   0  0  0  0  0  0  0  0  0  0  0  0
  1  2  1  0
  2  3  1  0
  3  4  1  0
  3  5  1  0
  3  6  1  0
  4  7  2  0
  4  8  1  0
M  END
>  <Name>  (161) 
2-Hydroxy-2-methylbutanoic

>  <logK_Dy_z=3.0_T=25_I=1.0>  (161) 
3.16

$$$$

     RDKit          2D

 14 14  0  0  0  0  0  0  0  0999 V2000
   16.4718   -8.2734    0.0000 C   0  0  0  0  0  0  0  0  0  0  0  0
   16.4718   -9.6034    0.0000 C   0  0  0  0  0  0  0  0  0  0  0  0
   15.3200   -7.6084    0.0000 C   0  0  0  0  0  0  0  0  0  0  0  0
   15.3200  -10.2684    0.0000 C   0  0  0  0  0  0  0  0  0  0  0  0
   14.1682   -8.2734    0.0000 C   0  0  0  0  0  0  0  0  0  0  0  0
   14.1682   -9.6034    0.0000 C   0  0  0  0  0  0  0  0  0  0  0  0
   15.3200   -6.2784    0.0000 C   0  0  0  0  0  0  0  0  0  0  0  0
   17.6236  -10.2684    0.0000 S   0  0  0  0  0  0  0  0  0  0  0  0
   16.4718   -5.6134    0.0000 O   0  0  0  0  0  0  0  0  0  0  0  0
   14.1682   -5.6134    0.0000 O   0  0  0  0  0  0  0  0  0  0  0  0
   13.0164   -7.6084    0.0000 O   0  0  0  0  0  0  0  0  0  0  0  0
   18.2886   -9.1166    0.0000 O   0  0  0  0  0  0  0  0  0  0  0  0
   16.9586  -11.4202    0.0000 O   0  0  0  0  0  0  0  0  0  0  0  0
   18.7754  -10.9334    0.0000 O   0  0  0  0  0  0  0  0  0  0  0  0
  2  1  2  0
  3  1  1  0
  4  2  1  0
  5  3  2  0
  6  4  2  0
  6  5  1  0
  3  7  1  0
  2  8  1  0
  7  9  2  0
  7 10  1  0
  5 11  1  0
  8 12  2  0
  8 13  2  0
  8 14  1  0
M  END
>  <Name>  (162) 
2-Hydroxy-5-sulfobenzoic

>  <logK_Dy_z=3.0_T=25_I=1.0>  (162) 
7.98

$$$$

     RDKit          2D

 12 12  0  0  0  0  0  0  0  0999 V2000
    9.2451   -7.8069    0.0000 C   0  0  0  0  0  0  0  0  0  0  0  0
    9.9098   -8.9411    0.0000 C   0  0  0  0  0  0  0  0  0  0  0  0
    7.9157   -7.8069    0.0000 C   0  0  0  0  0  0  0  0  0  0  0  0
    9.2451  -10.0932    0.0000 C   0  0  0  0  0  0  0  0  0  0  0  0
    7.2512   -8.9411    0.0000 C   0  0  0  0  0  0  0  0  0  0  0  0
    7.9157  -10.0932    0.0000 C   0  0  0  0  0  0  0  0  0  0  0  0
   11.2301   -8.9411    0.0000 C   0  0  0  0  0  0  0  0  0  0  0  0
   11.8948   -7.8069    0.0000 C   0  0  0  0  0  0  0  0  0  0  0  0
   11.8948  -10.0932    0.0000 O   0  0  0  0  0  0  0  0  0  0  0  0
   11.2301   -6.6549    0.0000 O   0  0  0  0  0  0  0  0  0  0  0  0
   13.2241   -7.8069    0.0000 O   0  0  0  0  0  0  0  0  0  0  0  0
   13.2241  -10.0932    0.0000 C   0  0  0  0  0  0  0  0  0  0  0  0
  2  1  2  0
  3  1  1  0
  4  2  1  0
  5  3  2  0
  6  4  2  0
  6  5  1  0
  2  7  1  0
  7  8  1  0
  7  9  1  0
  8 10  2  0
  8 11  1  0
  9 12  1  0
M  END
>  <Name>  (163) 
2-Phenyl-2-methoxyethanoic

>  <logK_Dy_z=3.0_T=25_I=1.0>  (163) 
2.19

$$$$

     RDKit          2D

 16 16  0  0  0  0  0  0  0  0999 V2000
   13.6186  -10.0752    0.0000 C   0  0  0  0  0  0  0  0  0  0  0  0
   13.6186  -11.4052    0.0000 C   0  0  0  0  0  0  0  0  0  0  0  0
   12.4667   -9.4102    0.0000 C   0  0  0  0  0  0  0  0  0  0  0  0
   12.4667  -12.0702    0.0000 C   0  0  0  0  0  0  0  0  0  0  0  0
   11.3149  -10.0752    0.0000 C   0  0  0  0  0  0  0  0  0  0  0  0
   11.3149  -11.4052    0.0000 C   0  0  0  0  0  0  0  0  0  0  0  0
   12.4667  -13.4002    0.0000 C   0  0  0  0  0  0  0  0  0  0  0  0
   14.7704   -9.4102    0.0000 N   0  0  0  0  0  0  0  0  0  0  0  0
   10.1631   -9.4102    0.0000 N   0  0  0  0  0  0  0  0  0  0  0  0
   14.7704   -8.0802    0.0000 O   0  0  0  0  0  0  0  0  0  0  0  0
   15.9222  -10.0752    0.0000 O   0  0  0  0  0  0  0  0  0  0  0  0
   10.1631   -8.0802    0.0000 O   0  0  0  0  0  0  0  0  0  0  0  0
    9.0113  -10.0752    0.0000 O   0  0  0  0  0  0  0  0  0  0  0  0
   13.6186  -14.0652    0.0000 O   0  0  0  0  0  0  0  0  0  0  0  0
   11.3149  -14.0652    0.0000 O   0  0  0  0  0  0  0  0  0  0  0  0
   14.7704  -12.0702    0.0000 O   0  0  0  0  0  0  0  0  0  0  0  0
  2  1  2  0
  3  1  1  0
  4  2  1  0
  5  3  2  0
  6  4  2  0
  6  5  1  0
  4  7  1  0
  1  8  1  0
  5  9  1  0
  8 10  1  0
  8 11  2  0
  9 12  1  0
  9 13  2  0
  7 14  2  0
  7 15  1  0
  2 16  1  0
M  CHG  4   8   1   9   1  10  -1  12  -1
M  END
>  <Name>  (164) 
3&5-Dinitrosalicylic

>  <logK_Dy_z=3.0_T=25_I=1.0>  (164) 
5.48

$$$$

     RDKit          2D

 24 24  0  0  0  0  0  0  0  0999 V2000
   13.6186  -10.4210    0.0000 C   0  0  0  0  0  0  0  0  0  0  0  0
   13.6186  -11.7510    0.0000 C   0  0  0  0  0  0  0  0  0  0  0  0
   12.4668   -9.7560    0.0000 C   0  0  0  0  0  0  0  0  0  0  0  0
   12.4668  -12.4160    0.0000 C   0  0  0  0  0  0  0  0  0  0  0  0
   11.3150  -10.4210    0.0000 C   0  0  0  0  0  0  0  0  0  0  0  0
   11.3150  -11.7510    0.0000 C   0  0  0  0  0  0  0  0  0  0  0  0
   14.7705   -9.7560    0.0000 N   0  0  0  0  0  0  0  0  0  0  0  0
   15.9223  -10.4210    0.0000 N   0  0  0  0  0  0  0  0  0  0  0  0
   12.4668  -13.7460    0.0000 S   0  0  0  0  0  0  0  0  0  0  0  0
   17.0741   -9.7560    0.0000 C   0  0  0  0  0  0  0  0  0  0  0  0
   18.2259  -10.4210    0.0000 C   0  0  0  0  0  0  0  0  0  0  0  0
   17.0741   -8.4260    0.0000 C   0  0  0  0  0  0  0  0  0  0  0  0
   18.2259   -7.7610    0.0000 O   0  0  0  0  0  0  0  0  0  0  0  0
   15.9223   -7.7610    0.0000 C   0  0  0  0  0  0  0  0  0  0  0  0
   19.3777   -9.7560    0.0000 C   0  0  0  0  0  0  0  0  0  0  0  0
   18.2259  -11.7510    0.0000 O   0  0  0  0  0  0  0  0  0  0  0  0
   10.1632   -9.7560    0.0000 S   0  0  0  0  0  0  0  0  0  0  0  0
   11.1369  -13.7460    0.0000 O   0  0  0  0  0  0  0  0  0  0  0  0
   13.7968  -13.7460    0.0000 O   0  0  0  0  0  0  0  0  0  0  0  0
   12.4668   -8.4260    0.0000 O   0  0  0  0  0  0  0  0  0  0  0  0
   10.8282   -8.6042    0.0000 O   0  0  0  0  0  0  0  0  0  0  0  0
    9.4982  -10.9078    0.0000 O   0  0  0  0  0  0  0  0  0  0  0  0
    9.0114   -9.0910    0.0000 O   0  0  0  0  0  0  0  0  0  0  0  0
   12.4668  -15.0760    0.0000 O   0  0  0  0  0  0  0  0  0  0  0  0
  2  1  2  0
  3  1  1  0
  4  2  1  0
  5  3  2  0
  6  4  2  0
  6  5  1  0
  1  7  1  0
  7  8  2  0
  4  9  1  0
  8 10  1  0
 10 11  1  0
 10 12  1  0
 12 13  2  0
 12 14  1  0
 11 15  1  0
 11 16  2  0
  5 17  1  0
  9 18  2  0
  9 19  2  0
  3 20  1  0
 17 21  2  0
 17 22  2  0
 17 23  1  0
  9 24  1  0
M  END
>  <Name>  (165) 
3-(2-hydroxy-3&5-disulfophenylazo)pentane-2&4-dione

>  <logK_Dy_z=3.0_T=25_I=1.0>  (165) 
7.9

$$$$

     RDKit          2D

 19 19  0  0  0  0  0  0  0  0999 V2000
   11.9172   -8.7365    0.0000 C   0  0  0  0  0  0  0  0  0  0  0  0
   11.9172  -10.0665    0.0000 C   0  0  0  0  0  0  0  0  0  0  0  0
   10.7653   -8.0715    0.0000 C   0  0  0  0  0  0  0  0  0  0  0  0
   10.7653  -10.7315    0.0000 C   0  0  0  0  0  0  0  0  0  0  0  0
    9.6135   -8.7365    0.0000 C   0  0  0  0  0  0  0  0  0  0  0  0
    9.6135  -10.0665    0.0000 C   0  0  0  0  0  0  0  0  0  0  0  0
   13.0690   -8.0715    0.0000 N   0  0  0  0  0  0  0  0  0  0  0  0
   14.2208   -8.7365    0.0000 N   0  0  0  0  0  0  0  0  0  0  0  0
   15.3726   -8.0715    0.0000 C   0  0  0  0  0  0  0  0  0  0  0  0
   16.5244   -8.7365    0.0000 C   0  0  0  0  0  0  0  0  0  0  0  0
   15.3726   -6.7415    0.0000 C   0  0  0  0  0  0  0  0  0  0  0  0
   16.5244   -6.0765    0.0000 O   0  0  0  0  0  0  0  0  0  0  0  0
   14.2208   -6.0765    0.0000 C   0  0  0  0  0  0  0  0  0  0  0  0
   17.6762   -8.0715    0.0000 C   0  0  0  0  0  0  0  0  0  0  0  0
   16.5244  -10.0665    0.0000 O   0  0  0  0  0  0  0  0  0  0  0  0
   10.7653   -6.7415    0.0000 O   0  0  0  0  0  0  0  0  0  0  0  0
    8.4617  -10.7315    0.0000 N   0  0  0  0  0  0  0  0  0  0  0  0
    8.4617  -12.0615    0.0000 O   0  0  0  0  0  0  0  0  0  0  0  0
    7.3099  -10.0665    0.0000 O   0  0  0  0  0  0  0  0  0  0  0  0
  2  1  2  0
  3  1  1  0
  4  2  1  0
  5  3  2  0
  6  4  2  0
  6  5  1  0
  1  7  1  0
  7  8  2  0
  8  9  1  0
  9 10  1  0
  9 11  1  0
 11 12  2  0
 11 13  1  0
 10 14  1  0
 10 15  2  0
  3 16  1  0
  6 17  1  0
 17 18  1  0
 17 19  2  0
M  CHG  2  17   1  18  -1
M  END
>  <Name>  (166) 
3-(2-hydroxy-4-nitrophenylazo)pentane-2&4-dione

>  <logK_Dy_z=3.0_T=25_I=1.0>  (166) 
8.26

$$$$

     RDKit          2D

 23 23  0  0  0  0  0  0  0  0999 V2000
   13.2180  -10.2741    0.0000 C   0  0  0  0  0  0  0  0  0  0  0  0
   13.2180  -11.6041    0.0000 C   0  0  0  0  0  0  0  0  0  0  0  0
   12.0662   -9.6091    0.0000 C   0  0  0  0  0  0  0  0  0  0  0  0
   12.0662  -12.2691    0.0000 C   0  0  0  0  0  0  0  0  0  0  0  0
   10.9144  -10.2741    0.0000 C   0  0  0  0  0  0  0  0  0  0  0  0
   10.9144  -11.6041    0.0000 C   0  0  0  0  0  0  0  0  0  0  0  0
   14.3699   -9.6091    0.0000 N   0  0  0  0  0  0  0  0  0  0  0  0
   15.5217  -10.2741    0.0000 N   0  0  0  0  0  0  0  0  0  0  0  0
   12.0662  -13.5991    0.0000 N   0  0  0  0  0  0  0  0  0  0  0  0
   16.6735   -9.6091    0.0000 C   0  0  0  0  0  0  0  0  0  0  0  0
   17.8253  -10.2741    0.0000 C   0  0  0  0  0  0  0  0  0  0  0  0
   16.6735   -8.2791    0.0000 C   0  0  0  0  0  0  0  0  0  0  0  0
   17.8253   -7.6141    0.0000 O   0  0  0  0  0  0  0  0  0  0  0  0
   15.5217   -7.6141    0.0000 C   0  0  0  0  0  0  0  0  0  0  0  0
   17.8253  -11.6041    0.0000 C   0  0  0  0  0  0  0  0  0  0  0  0
   18.9771   -9.6091    0.0000 O   0  0  0  0  0  0  0  0  0  0  0  0
    9.7626   -9.6091    0.0000 S   0  0  0  0  0  0  0  0  0  0  0  0
   10.9144  -14.2641    0.0000 O   0  0  0  0  0  0  0  0  0  0  0  0
   13.2180  -14.2641    0.0000 O   0  0  0  0  0  0  0  0  0  0  0  0
   12.0662   -8.2791    0.0000 O   0  0  0  0  0  0  0  0  0  0  0  0
   10.4276   -8.4573    0.0000 O   0  0  0  0  0  0  0  0  0  0  0  0
    9.0976  -10.7609    0.0000 O   0  0  0  0  0  0  0  0  0  0  0  0
    8.6108   -8.9441    0.0000 O   0  0  0  0  0  0  0  0  0  0  0  0
  2  1  2  0
  3  1  1  0
  4  2  1  0
  5  3  2  0
  6  4  2  0
  6  5  1  0
  1  7  1  0
  7  8  2  0
  4  9  1  0
  8 10  1  0
 10 11  1  0
 10 12  1  0
 12 13  2  0
 12 14  1  0
 11 15  1  0
 11 16  2  0
  5 17  1  0
  9 18  2  0
  9 19  1  0
  3 20  1  0
 17 21  2  0
 17 22  2  0
 17 23  1  0
M  CHG  2   9   1  19  -1
M  END
>  <Name>  (167) 
3-(2-hydroxy-5-nitro-3-sulfophenylazo)pentane-2&4-dione

>  <logK_Dy_z=3.0_T=25_I=1.0>  (167) 
7.78

$$$$

     RDKit          2D

 16 16  0  0  0  0  0  0  0  0999 V2000
   12.0133  -10.5793    0.0000 C   0  0  0  0  0  0  0  0  0  0  0  0
   12.0133  -11.9093    0.0000 C   0  0  0  0  0  0  0  0  0  0  0  0
   10.8615   -9.9143    0.0000 C   0  0  0  0  0  0  0  0  0  0  0  0
   10.8615  -12.5742    0.0000 C   0  0  0  0  0  0  0  0  0  0  0  0
    9.7097  -10.5793    0.0000 C   0  0  0  0  0  0  0  0  0  0  0  0
    9.7097  -11.9093    0.0000 C   0  0  0  0  0  0  0  0  0  0  0  0
   13.1651   -9.9143    0.0000 N   0  0  0  0  0  0  0  0  0  0  0  0
   14.3169  -10.5793    0.0000 N   0  0  0  0  0  0  0  0  0  0  0  0
   15.4687   -9.9143    0.0000 C   0  0  0  0  0  0  0  0  0  0  0  0
   16.6205  -10.5793    0.0000 C   0  0  0  0  0  0  0  0  0  0  0  0
   15.4687   -8.5843    0.0000 C   0  0  0  0  0  0  0  0  0  0  0  0
   16.6205   -7.9193    0.0000 O   0  0  0  0  0  0  0  0  0  0  0  0
   14.3169   -7.9193    0.0000 C   0  0  0  0  0  0  0  0  0  0  0  0
   17.7723   -9.9143    0.0000 C   0  0  0  0  0  0  0  0  0  0  0  0
   16.6205  -11.9093    0.0000 O   0  0  0  0  0  0  0  0  0  0  0  0
   10.8615   -8.5843    0.0000 O   0  0  0  0  0  0  0  0  0  0  0  0
  2  1  2  0
  3  1  1  0
  4  2  1  0
  5  3  2  0
  6  4  2  0
  6  5  1  0
  1  7  1  0
  7  8  2  0
  8  9  1  0
  9 10  1  0
  9 11  1  0
 11 12  2  0
 11 13  1  0
 10 14  1  0
 10 15  2  0
  3 16  1  0
M  END
>  <Name>  (168) 
3-(2-hydroxyphenylazo)pentane-2&4-dione

>  <logK_Dy_z=3.0_T=25_I=1.0>  (168) 
8.57

$$$$

     RDKit          2D

 21 21  0  0  0  0  0  0  0  0999 V2000
   11.7759   -8.4113    0.0000 C   0  0  0  0  0  0  0  0  0  0  0  0
   11.7759   -9.7413    0.0000 C   0  0  0  0  0  0  0  0  0  0  0  0
   10.6241   -7.7463    0.0000 C   0  0  0  0  0  0  0  0  0  0  0  0
   10.6241  -10.4063    0.0000 C   0  0  0  0  0  0  0  0  0  0  0  0
    9.4723   -8.4113    0.0000 C   0  0  0  0  0  0  0  0  0  0  0  0
    9.4723   -9.7413    0.0000 C   0  0  0  0  0  0  0  0  0  0  0  0
   12.9277   -7.7463    0.0000 N   0  0  0  0  0  0  0  0  0  0  0  0
   14.0795   -8.4113    0.0000 N   0  0  0  0  0  0  0  0  0  0  0  0
   15.2313   -7.7463    0.0000 C   0  0  0  0  0  0  0  0  0  0  0  0
   16.3831   -8.4113    0.0000 C   0  0  0  0  0  0  0  0  0  0  0  0
   15.2313   -6.4163    0.0000 C   0  0  0  0  0  0  0  0  0  0  0  0
   16.3831   -5.7513    0.0000 O   0  0  0  0  0  0  0  0  0  0  0  0
   14.0795   -5.7513    0.0000 C   0  0  0  0  0  0  0  0  0  0  0  0
   17.5349   -7.7463    0.0000 C   0  0  0  0  0  0  0  0  0  0  0  0
   16.3831   -9.7413    0.0000 O   0  0  0  0  0  0  0  0  0  0  0  0
    8.3205   -7.7463    0.0000 S   0  0  0  0  0  0  0  0  0  0  0  0
   10.6241   -6.4163    0.0000 O   0  0  0  0  0  0  0  0  0  0  0  0
    8.9855   -6.5945    0.0000 O   0  0  0  0  0  0  0  0  0  0  0  0
    7.6555   -8.8981    0.0000 O   0  0  0  0  0  0  0  0  0  0  0  0
    7.1687   -7.0813    0.0000 O   0  0  0  0  0  0  0  0  0  0  0  0
   10.6241  -11.7363    0.0000 Cl  0  0  0  0  0  0  0  0  0  0  0  0
  2  1  2  0
  3  1  1  0
  4  2  1  0
  5  3  2  0
  6  4  2  0
  6  5  1  0
  1  7  1  0
  7  8  2  0
  8  9  1  0
  9 10  1  0
  9 11  1  0
 11 12  2  0
 11 13  1  0
 10 14  1  0
 10 15  2  0
  5 16  1  0
  3 17  1  0
 16 18  2  0
 16 19  2  0
 16 20  1  0
  4 21  1  0
M  END
>  <Name>  (169) 
3-(5-chloro-2-hydroxy-3-sulfophenylazo)pentane-2&4-dione

>  <logK_Dy_z=3.0_T=25_I=1.0>  (169) 
8.08

$$$$

     RDKit          2D

 10  9  0  0  0  0  0  0  0  0999 V2000
   12.5148   -6.7141    0.0000 C   0  0  0  0  0  0  0  0  0  0  0  0
   11.2169   -7.4672    0.0000 C   0  0  0  0  0  0  0  0  0  0  0  0
   10.0636   -6.8047    0.0000 O   0  0  0  0  0  0  0  0  0  0  0  0
   11.2197   -8.7972    0.0000 C   0  0  0  0  0  0  0  0  0  0  0  0
   10.0694   -9.4647    0.0000 C   0  0  0  0  0  0  0  0  0  0  0  0
   12.3730   -9.4597    0.0000 C   0  0  0  0  0  0  0  0  0  0  0  0
   12.3759  -10.7897    0.0000 O   0  0  0  0  0  0  0  0  0  0  0  0
   13.5234   -8.7922    0.0000 C   0  0  0  0  0  0  0  0  0  0  0  0
    8.9161   -8.8022    0.0000 C   0  0  0  0  0  0  0  0  0  0  0  0
    7.7658   -9.4697    0.0000 C   0  0  0  0  0  0  0  0  0  0  0  0
  1  2  1  0
  2  3  2  0
  2  4  1  0
  4  5  1  0
  4  6  1  0
  6  7  2  0
  6  8  1  0
  5  9  1  0
  9 10  2  0
M  END
>  <Name>  (170) 
3-allylpentanedione

>  <logK_Dy_z=3.0_T=25_I=1.0>  (170) 
6.44

$$$$

     RDKit          2D

 18 19  0  0  0  0  0  0  0  0999 V2000
   23.9957  -10.7899    0.0000 C   0  0  0  0  0  0  0  0  0  0  0  0
   23.9957  -12.1199    0.0000 C   0  0  0  0  0  0  0  0  0  0  0  0
   22.8439  -10.1249    0.0000 C   0  0  0  0  0  0  0  0  0  0  0  0
   22.8439  -12.7848    0.0000 C   0  0  0  0  0  0  0  0  0  0  0  0
   21.6921  -10.7899    0.0000 C   0  0  0  0  0  0  0  0  0  0  0  0
   21.6921  -12.1199    0.0000 C   0  0  0  0  0  0  0  0  0  0  0  0
   20.5403  -10.1249    0.0000 C   0  0  0  0  0  0  0  0  0  0  0  0
   19.3885  -10.7899    0.0000 C   0  0  0  0  0  0  0  0  0  0  0  0
   20.5403  -12.7848    0.0000 C   0  0  0  0  0  0  0  0  0  0  0  0
   19.3885  -12.1199    0.0000 C   0  0  0  0  0  0  0  0  0  0  0  0
   25.1475  -12.7848    0.0000 S   0  0  0  0  0  0  0  0  0  0  0  0
   18.2367  -10.1249    0.0000 O   0  0  0  0  0  0  0  0  0  0  0  0
   18.2367  -12.7848    0.0000 C   0  0  0  0  0  0  0  0  0  0  0  0
   25.8125  -11.6331    0.0000 O   0  0  0  0  0  0  0  0  0  0  0  0
   24.4825  -13.9366    0.0000 O   0  0  0  0  0  0  0  0  0  0  0  0
   26.2993  -13.4498    0.0000 O   0  0  0  0  0  0  0  0  0  0  0  0
   17.0850  -12.1199    0.0000 O   0  0  0  0  0  0  0  0  0  0  0  0
   18.2367  -14.1148    0.0000 O   0  0  0  0  0  0  0  0  0  0  0  0
  2  1  2  0
  3  1  1  0
  4  2  1  0
  5  3  2  0
  6  4  2  0
  7  5  1  0
  6  5  1  0
  8  7  2  0
  9  6  1  0
 10  8  1  0
 10  9  2  0
  2 11  1  0
  8 12  1  0
 10 13  1  0
 11 14  2  0
 11 15  2  0
 11 16  1  0
 13 17  2  0
 13 18  1  0
M  END
>  <Name>  (171) 
3-Hydroxy-7-sulfo-2-naphthoic

>  <logK_Dy_z=3.0_T=25_I=1.0>  (171) 
7.68

$$$$

     RDKit          2D

 18 19  0  0  0  0  0  0  0  0999 V2000
   14.0276   -9.6593    0.0000 N   0  0  0  0  0  0  0  0  0  0  0  0
   15.3745   -9.6593    0.0000 N   0  0  0  0  0  0  0  0  0  0  0  0
   16.0479  -10.8257    0.0000 C   0  0  0  0  0  0  0  0  0  0  0  0
   17.3948  -10.8257    0.0000 C   0  0  0  0  0  0  0  0  0  0  0  0
   15.3745  -11.9922    0.0000 C   0  0  0  0  0  0  0  0  0  0  0  0
   18.0683  -11.9922    0.0000 C   0  0  0  0  0  0  0  0  0  0  0  0
   16.0479  -13.1586    0.0000 C   0  0  0  0  0  0  0  0  0  0  0  0
   17.3948  -13.1586    0.0000 C   0  0  0  0  0  0  0  0  0  0  0  0
   13.3541   -8.4928    0.0000 C   0  0  0  0  0  0  0  0  0  0  0  0
   12.0072   -8.4928    0.0000 C   0  0  0  0  0  0  0  0  0  0  0  0
   14.0276   -7.3264    0.0000 C   0  0  0  0  0  0  0  0  0  0  0  0
   11.3338   -7.3264    0.0000 C   0  0  0  0  0  0  0  0  0  0  0  0
   13.3541   -6.1599    0.0000 C   0  0  0  0  0  0  0  0  0  0  0  0
   12.0072   -6.1599    0.0000 C   0  0  0  0  0  0  0  0  0  0  0  0
   15.3745   -7.3264    0.0000 O   0  0  0  0  0  0  0  0  0  0  0  0
   14.0276   -4.9935    0.0000 O   0  0  0  0  0  0  0  0  0  0  0  0
   11.3338   -4.9935    0.0000 O   0  0  0  0  0  0  0  0  0  0  0  0
   18.0683  -14.3251    0.0000 Br  0  0  0  0  0  0  0  0  0  0  0  0
  1  2  2  0
  4  3  2  0
  5  3  1  0
  6  4  1  0
  7  5  2  0
  8  6  2  0
  8  7  1  0
  2  3  1  0
 10  9  2  0
 11  9  1  0
 12 10  1  0
 13 11  2  0
 14 12  2  0
 14 13  1  0
  1  9  1  0
 11 15  1  0
 13 16  1  0
 14 17  1  0
  8 18  1  0
M  END
>  <Name>  (172) 
4-((E)-(4-Bromophenyl)diazenyl)-1&2&3-benzenetriol

>  <logK_Dy_z=3.0_T=25_I=1.0>  (172) 
8.57

$$$$

     RDKit          2D

 18 19  0  0  0  0  0  0  0  0999 V2000
   13.5789  -12.6718    0.0000 N   0  0  0  0  0  0  0  0  0  0  0  0
   14.9258  -12.6718    0.0000 N   0  0  0  0  0  0  0  0  0  0  0  0
   15.5993  -13.8383    0.0000 C   0  0  0  0  0  0  0  0  0  0  0  0
   16.9462  -13.8383    0.0000 C   0  0  0  0  0  0  0  0  0  0  0  0
   14.9258  -15.0047    0.0000 C   0  0  0  0  0  0  0  0  0  0  0  0
   17.6196  -15.0047    0.0000 C   0  0  0  0  0  0  0  0  0  0  0  0
   15.5993  -16.1712    0.0000 C   0  0  0  0  0  0  0  0  0  0  0  0
   16.9462  -16.1712    0.0000 C   0  0  0  0  0  0  0  0  0  0  0  0
   12.9055  -11.5054    0.0000 C   0  0  0  0  0  0  0  0  0  0  0  0
   11.5586  -11.5054    0.0000 C   0  0  0  0  0  0  0  0  0  0  0  0
   13.5789  -10.3389    0.0000 C   0  0  0  0  0  0  0  0  0  0  0  0
   10.8851  -10.3389    0.0000 C   0  0  0  0  0  0  0  0  0  0  0  0
   12.9055   -9.1725    0.0000 C   0  0  0  0  0  0  0  0  0  0  0  0
   11.5586   -9.1725    0.0000 C   0  0  0  0  0  0  0  0  0  0  0  0
   14.9258  -10.3389    0.0000 O   0  0  0  0  0  0  0  0  0  0  0  0
   13.5789   -8.0060    0.0000 O   0  0  0  0  0  0  0  0  0  0  0  0
   10.8851   -8.0060    0.0000 O   0  0  0  0  0  0  0  0  0  0  0  0
   17.6196  -17.3376    0.0000 Cl  0  0  0  0  0  0  0  0  0  0  0  0
  1  2  2  0
  4  3  2  0
  5  3  1  0
  6  4  1  0
  7  5  2  0
  8  6  2  0
  8  7  1  0
  2  3  1  0
 10  9  2  0
 11  9  1  0
 12 10  1  0
 13 11  2  0
 14 12  2  0
 14 13  1  0
  1  9  1  0
 11 15  1  0
 13 16  1  0
 14 17  1  0
  8 18  1  0
M  END
>  <Name>  (173) 
4-((E)-(4-Chlorophenyl)diazenyl)-1&2&3-benzenetriol

>  <logK_Dy_z=3.0_T=25_I=1.0>  (173) 
8.29

$$$$

     RDKit          2D

 18 19  0  0  0  0  0  0  0  0999 V2000
   14.2840  -11.1656    0.0000 N   0  0  0  0  0  0  0  0  0  0  0  0
   15.6309  -11.1656    0.0000 N   0  0  0  0  0  0  0  0  0  0  0  0
   16.3043  -12.3320    0.0000 C   0  0  0  0  0  0  0  0  0  0  0  0
   17.6512  -12.3320    0.0000 C   0  0  0  0  0  0  0  0  0  0  0  0
   15.6309  -13.4985    0.0000 C   0  0  0  0  0  0  0  0  0  0  0  0
   18.3247  -13.4985    0.0000 C   0  0  0  0  0  0  0  0  0  0  0  0
   16.3043  -14.6649    0.0000 C   0  0  0  0  0  0  0  0  0  0  0  0
   17.6512  -14.6649    0.0000 C   0  0  0  0  0  0  0  0  0  0  0  0
   13.6105   -9.9991    0.0000 C   0  0  0  0  0  0  0  0  0  0  0  0
   12.2636   -9.9991    0.0000 C   0  0  0  0  0  0  0  0  0  0  0  0
   14.2840   -8.8327    0.0000 C   0  0  0  0  0  0  0  0  0  0  0  0
   11.5902   -8.8327    0.0000 C   0  0  0  0  0  0  0  0  0  0  0  0
   13.6105   -7.6662    0.0000 C   0  0  0  0  0  0  0  0  0  0  0  0
   12.2636   -7.6662    0.0000 C   0  0  0  0  0  0  0  0  0  0  0  0
   15.6309   -8.8327    0.0000 O   0  0  0  0  0  0  0  0  0  0  0  0
   14.2840   -6.4998    0.0000 O   0  0  0  0  0  0  0  0  0  0  0  0
   11.5902   -6.4998    0.0000 O   0  0  0  0  0  0  0  0  0  0  0  0
   18.3247  -15.8314    0.0000 F   0  0  0  0  0  0  0  0  0  0  0  0
  1  2  2  0
  4  3  2  0
  5  3  1  0
  6  4  1  0
  7  5  2  0
  8  6  2  0
  8  7  1  0
  2  3  1  0
 10  9  2  0
 11  9  1  0
 12 10  1  0
 13 11  2  0
 14 12  2  0
 14 13  1  0
  1  9  1  0
 11 15  1  0
 13 16  1  0
 14 17  1  0
  8 18  1  0
M  END
>  <Name>  (174) 
4-((E)-(4-Fluorophenyl)diazenyl)-1&2&3-benzenetriol

>  <logK_Dy_z=3.0_T=25_I=1.0>  (174) 
8.07

$$$$

     RDKit          2D

 18 19  0  0  0  0  0  0  0  0999 V2000
   12.6335  -10.5406    0.0000 N   0  0  0  0  0  0  0  0  0  0  0  0
   13.9804  -10.5406    0.0000 N   0  0  0  0  0  0  0  0  0  0  0  0
   14.6538  -11.7071    0.0000 C   0  0  0  0  0  0  0  0  0  0  0  0
   16.0007  -11.7071    0.0000 C   0  0  0  0  0  0  0  0  0  0  0  0
   13.9804  -12.8735    0.0000 C   0  0  0  0  0  0  0  0  0  0  0  0
   16.6742  -12.8735    0.0000 C   0  0  0  0  0  0  0  0  0  0  0  0
   14.6538  -14.0400    0.0000 C   0  0  0  0  0  0  0  0  0  0  0  0
   16.0007  -14.0400    0.0000 C   0  0  0  0  0  0  0  0  0  0  0  0
   11.9600   -9.3742    0.0000 C   0  0  0  0  0  0  0  0  0  0  0  0
   10.6131   -9.3742    0.0000 C   0  0  0  0  0  0  0  0  0  0  0  0
   12.6335   -8.2077    0.0000 C   0  0  0  0  0  0  0  0  0  0  0  0
    9.9397   -8.2077    0.0000 C   0  0  0  0  0  0  0  0  0  0  0  0
   11.9600   -7.0413    0.0000 C   0  0  0  0  0  0  0  0  0  0  0  0
   10.6131   -7.0413    0.0000 C   0  0  0  0  0  0  0  0  0  0  0  0
   13.9804   -8.2077    0.0000 O   0  0  0  0  0  0  0  0  0  0  0  0
   12.6335   -5.8748    0.0000 O   0  0  0  0  0  0  0  0  0  0  0  0
    9.9397   -5.8748    0.0000 O   0  0  0  0  0  0  0  0  0  0  0  0
   16.6742  -15.2064    0.0000 I   0  0  0  0  0  0  0  0  0  0  0  0
  1  2  2  0
  4  3  2  0
  5  3  1  0
  6  4  1  0
  7  5  2  0
  8  6  2  0
  8  7  1  0
  2  3  1  0
 10  9  2  0
 11  9  1  0
 12 10  1  0
 13 11  2  0
 14 12  2  0
 14 13  1  0
  1  9  1  0
 11 15  1  0
 13 16  1  0
 14 17  1  0
  8 18  1  0
M  END
>  <Name>  (175) 
4-((E)-(4-Iodophenyl)diazenyl)-1&2&3-benzenetriol

>  <logK_Dy_z=3.0_T=25_I=1.0>  (175) 
8.87

$$$$

     RDKit          2D

 17 18  0  0  0  0  0  0  0  0999 V2000
   13.1714  -10.2357    0.0000 N   0  0  0  0  0  0  0  0  0  0  0  0
   14.5183  -10.2357    0.0000 N   0  0  0  0  0  0  0  0  0  0  0  0
   15.1917  -11.4021    0.0000 C   0  0  0  0  0  0  0  0  0  0  0  0
   16.5386  -11.4021    0.0000 C   0  0  0  0  0  0  0  0  0  0  0  0
   14.5183  -12.5685    0.0000 C   0  0  0  0  0  0  0  0  0  0  0  0
   17.2120  -12.5685    0.0000 C   0  0  0  0  0  0  0  0  0  0  0  0
   15.1917  -13.7350    0.0000 C   0  0  0  0  0  0  0  0  0  0  0  0
   16.5386  -13.7350    0.0000 C   0  0  0  0  0  0  0  0  0  0  0  0
   12.4979   -9.0692    0.0000 C   0  0  0  0  0  0  0  0  0  0  0  0
   11.1511   -9.0692    0.0000 C   0  0  0  0  0  0  0  0  0  0  0  0
   13.1714   -7.9028    0.0000 C   0  0  0  0  0  0  0  0  0  0  0  0
   10.4776   -7.9028    0.0000 C   0  0  0  0  0  0  0  0  0  0  0  0
   12.4979   -6.7364    0.0000 C   0  0  0  0  0  0  0  0  0  0  0  0
   11.1511   -6.7364    0.0000 C   0  0  0  0  0  0  0  0  0  0  0  0
   14.5183   -7.9028    0.0000 O   0  0  0  0  0  0  0  0  0  0  0  0
   13.1714   -5.5699    0.0000 O   0  0  0  0  0  0  0  0  0  0  0  0
   10.4776   -5.5699    0.0000 O   0  0  0  0  0  0  0  0  0  0  0  0
  1  2  2  0
  4  3  2  0
  5  3  1  0
  6  4  1  0
  7  5  2  0
  8  6  2  0
  8  7  1  0
  2  3  1  0
 10  9  2  0
 11  9  1  0
 12 10  1  0
 13 11  2  0
 14 12  2  0
 14 13  1  0
  1  9  1  0
 11 15  1  0
 13 16  1  0
 14 17  1  0
M  END
>  <Name>  (176) 
4-((E)-Phenyldiazenyl)-1&2&3-benzenetriol

>  <logK_Dy_z=3.0_T=25_I=1.0>  (176) 
9.64

$$$$

     RDKit          2D

 11 11  0  0  0  0  0  0  0  0999 V2000
   16.7532   -9.4582    0.0000 C   0  0  0  0  0  0  0  0  0  0  0  0
   16.7532  -10.7882    0.0000 C   0  0  0  0  0  0  0  0  0  0  0  0
   15.6014   -8.7932    0.0000 C   0  0  0  0  0  0  0  0  0  0  0  0
   15.6014  -11.4532    0.0000 C   0  0  0  0  0  0  0  0  0  0  0  0
   14.4496   -9.4582    0.0000 C   0  0  0  0  0  0  0  0  0  0  0  0
   14.4496  -10.7882    0.0000 C   0  0  0  0  0  0  0  0  0  0  0  0
   15.6014   -7.4632    0.0000 N   0  0  0  0  0  0  0  0  0  0  0  0
   17.9050  -11.4532    0.0000 O   0  0  0  0  0  0  0  0  0  0  0  0
   15.6014  -12.7832    0.0000 O   0  0  0  0  0  0  0  0  0  0  0  0
   16.7532   -6.7982    0.0000 O   0  0  0  0  0  0  0  0  0  0  0  0
   14.4496   -6.7982    0.0000 O   0  0  0  0  0  0  0  0  0  0  0  0
  2  1  2  0
  3  1  1  0
  4  2  1  0
  5  3  2  0
  6  4  2  0
  6  5  1  0
  3  7  1  0
  2  8  1  0
  4  9  1  0
  7 10  2  0
  7 11  1  0
M  CHG  1   7   1
M  END
>  <Name>  (177) 
4-Nitrocatechol

>  <logK_Dy_z=3.0_T=25_I=1.0>  (177) 
9.53

$$$$

     RDKit          2D

 14 14  0  0  0  0  0  0  0  0999 V2000
   15.9036  -13.9931    0.0000 C   0  0  0  0  0  0  0  0  0  0  0  0
   15.9036  -15.3231    0.0000 C   0  0  0  0  0  0  0  0  0  0  0  0
   14.7518  -13.3281    0.0000 C   0  0  0  0  0  0  0  0  0  0  0  0
   14.7518  -15.9881    0.0000 C   0  0  0  0  0  0  0  0  0  0  0  0
   13.5999  -13.9931    0.0000 C   0  0  0  0  0  0  0  0  0  0  0  0
   13.5999  -15.3231    0.0000 C   0  0  0  0  0  0  0  0  0  0  0  0
   17.0554  -13.3281    0.0000 C   0  0  0  0  0  0  0  0  0  0  0  0
   12.4481  -13.3281    0.0000 S   0  0  0  0  0  0  0  0  0  0  0  0
   18.2072  -13.9931    0.0000 O   0  0  0  0  0  0  0  0  0  0  0  0
   17.0554  -11.9981    0.0000 O   0  0  0  0  0  0  0  0  0  0  0  0
   17.0554  -15.9881    0.0000 O   0  0  0  0  0  0  0  0  0  0  0  0
   13.1131  -12.1763    0.0000 O   0  0  0  0  0  0  0  0  0  0  0  0
   11.7831  -14.4799    0.0000 O   0  0  0  0  0  0  0  0  0  0  0  0
   11.2963  -12.6631    0.0000 O   0  0  0  0  0  0  0  0  0  0  0  0
  2  1  2  0
  3  1  1  0
  4  2  1  0
  5  3  2  0
  6  4  2  0
  6  5  1  0
  1  7  1  0
  5  8  1  0
  7  9  2  0
  7 10  1  0
  2 11  1  0
  8 12  2  0
  8 13  2  0
  8 14  1  0
M  END
>  <Name>  (178) 
5-Sulfosalicylic

>  <logK_Dy_z=3.0_T=25_I=1.0>  (178) 
8.29

$$$$

     RDKit          2D

 23 23  0  0  0  0  0  0  0  0999 V2000
   16.1095  -23.9210    0.0000 C   0  0  0  0  0  0  0  0  0  0  0  0
   14.1072  -23.9211    0.0000 C   0  0  0  0  0  0  0  0  0  0  0  0
   19.8706  -19.7137    0.0000 C   0  0  0  0  0  0  0  0  0  0  0  0
   19.2627  -21.6035    0.0000 C   0  0  0  0  0  0  0  0  0  0  0  0
   17.9257  -23.1057    0.0000 O   0  0  0  0  0  0  0  0  0  0  0  0
   10.3291  -19.7376    0.0000 C   0  0  0  0  0  0  0  0  0  0  0  0
   10.9477  -21.6450    0.0000 C   0  0  0  0  0  0  0  0  0  0  0  0
   12.2907  -23.1270    0.0000 O   0  0  0  0  0  0  0  0  0  0  0  0
   17.0290  -14.8374    0.0000 C   0  0  0  0  0  0  0  0  0  0  0  0
   18.6558  -16.0047    0.0000 C   0  0  0  0  0  0  0  0  0  0  0  0
   11.5204  -16.0337    0.0000 C   0  0  0  0  0  0  0  0  0  0  0  0
   13.1351  -14.8447    0.0000 C   0  0  0  0  0  0  0  0  0  0  0  0
   15.0902  -14.4235    0.0000 O   0  0  0  0  0  0  0  0  0  0  0  0
   10.5312  -17.7591    0.0000 N   0  0  0  0  0  0  0  0  0  0  0  0
   19.6561  -17.7260    0.0000 N   0  0  0  0  0  0  0  0  0  0  0  0
   21.5632  -17.1079    0.0000 C   0  0  0  0  0  0  0  0  0  0  0  0
   23.0526  -18.4408    0.0000 C   0  0  0  0  0  0  0  0  0  0  0  0
    8.6279  -17.1469    0.0000 C   0  0  0  0  0  0  0  0  0  0  0  0
    7.1500  -18.4770    0.0000 C   0  0  0  0  0  0  0  0  0  0  0  0
    7.5710  -20.4327    0.0000 O   0  0  0  0  0  0  0  0  0  0  0  0
    5.2473  -17.8650    0.0000 O   0  0  0  0  0  0  0  0  0  0  0  0
   22.6346  -20.3923    0.0000 O   0  0  0  0  0  0  0  0  0  0  0  0
   24.9465  -17.8178    0.0000 O   0  0  0  0  0  0  0  0  0  0  0  0
  1  2  1  0
  3  4  1  0
  4  5  1  0
  1  5  1  0
  6  7  1  0
  7  8  1  0
  2  8  1  0
  9 10  1  0
 11 12  1  0
 12 13  1  0
  9 13  1  0
 11 14  1  0
  6 14  1  0
 10 15  1  0
  3 15  1  0
 15 16  1  0
 16 17  1  0
 14 18  1  0
 18 19  1  0
 19 20  1  0
 19 21  2  0
 17 22  2  0
 17 23  1  0
M  END
>  <Name>  (179) 
A2-15C5-8

>  <logK_Dy_z=3.0_T=25_I=1.0>  (179) 
11.55

$$$$

     RDKit          2D

 26 26  0  0  0  0  0  0  0  0999 V2000
   15.5525  -13.8429    0.0000 C   0  0  0  0  0  0  0  0  0  0  0  0
   14.0086  -14.7475    0.0000 C   0  0  0  0  0  0  0  0  0  0  0  0
   21.9873  -11.4892    0.0000 C   0  0  0  0  0  0  0  0  0  0  0  0
   22.5768  -13.1841    0.0000 C   0  0  0  0  0  0  0  0  0  0  0  0
   18.6566  -12.0430    0.0000 C   0  0  0  0  0  0  0  0  0  0  0  0
   18.6693  -13.8464    0.0000 C   0  0  0  0  0  0  0  0  0  0  0  0
   18.6540   -8.4710    0.0000 C   0  0  0  0  0  0  0  0  0  0  0  0
   20.2026   -9.3651    0.0000 C   0  0  0  0  0  0  0  0  0  0  0  0
   20.2247  -11.1524    0.0000 N   0  0  0  0  0  0  0  0  0  0  0  0
    9.1399   -9.0218    0.0000 C   0  0  0  0  0  0  0  0  0  0  0  0
    7.9644  -10.3777    0.0000 C   0  0  0  0  0  0  0  0  0  0  0  0
   10.8905  -11.1512    0.0000 C   0  0  0  0  0  0  0  0  0  0  0  0
   12.4633  -12.0593    0.0000 C   0  0  0  0  0  0  0  0  0  0  0  0
   12.4458   -8.4573    0.0000 C   0  0  0  0  0  0  0  0  0  0  0  0
   12.4573   -6.6679    0.0000 C   0  0  0  0  0  0  0  0  0  0  0  0
   10.9019   -9.3619    0.0000 N   0  0  0  0  0  0  0  0  0  0  0  0
   15.5648   -6.6875    0.0000 C   0  0  0  0  0  0  0  0  0  0  0  0
   17.1087   -5.7829    0.0000 C   0  0  0  0  0  0  0  0  0  0  0  0
   13.9919   -5.7794    0.0000 O   0  0  0  0  0  0  0  0  0  0  0  0
   18.6654   -6.6816    0.0000 O   0  0  0  0  0  0  0  0  0  0  0  0
   17.1012  -14.7370    0.0000 O   0  0  0  0  0  0  0  0  0  0  0  0
   12.4519  -13.8487    0.0000 O   0  0  0  0  0  0  0  0  0  0  0  0
   24.3394  -13.5210    0.0000 O   0  0  0  0  0  0  0  0  0  0  0  0
   21.4038  -14.5421    0.0000 O   0  0  0  0  0  0  0  0  0  0  0  0
    6.2025  -10.0376    0.0000 O   0  0  0  0  0  0  0  0  0  0  0  0
    8.5509  -12.0736    0.0000 O   0  0  0  0  0  0  0  0  0  0  0  0
  1  2  1  0
  3  4  1  0
  5  6  1  0
  7  8  1  0
  8  9  1  0
  5  9  1  0
  3  9  1  0
 10 11  1  0
 12 13  1  0
 14 15  1  0
 14 16  1  0
 12 16  1  0
 10 16  1  0
 17 18  1  0
 17 19  1  0
 15 19  1  0
 18 20  1  0
  7 20  1  0
  6 21  1  0
  1 21  1  0
  2 22  1  0
 13 22  1  0
  4 23  1  0
  4 24  2  0
 11 25  1  0
 11 26  2  0
M  END
>  <Name>  (180) 
A2-18C6-17

>  <logK_Dy_z=3.0_T=25_I=1.0>  (180) 
11.57

$$$$

     RDKit          2D

 22 22  0  0  0  0  0  0  0  0999 V2000
   14.2943  -14.1542    0.0000 C   0  0  0  0  0  0  0  0  0  0  0  0
   12.9444  -14.9451    0.0000 C   0  0  0  0  0  0  0  0  0  0  0  0
   17.0082  -12.5805    0.0000 C   0  0  0  0  0  0  0  0  0  0  0  0
   17.0194  -14.1572    0.0000 C   0  0  0  0  0  0  0  0  0  0  0  0
   17.0060   -9.4574    0.0000 C   0  0  0  0  0  0  0  0  0  0  0  0
   18.3600  -10.2392    0.0000 C   0  0  0  0  0  0  0  0  0  0  0  0
   18.3793  -11.8018    0.0000 N   0  0  0  0  0  0  0  0  0  0  0  0
   14.3050   -7.8980    0.0000 C   0  0  0  0  0  0  0  0  0  0  0  0
   15.6549   -7.1071    0.0000 C   0  0  0  0  0  0  0  0  0  0  0  0
   10.2181  -11.8008    0.0000 C   0  0  0  0  0  0  0  0  0  0  0  0
   11.5933  -12.5948    0.0000 C   0  0  0  0  0  0  0  0  0  0  0  0
   11.5781   -9.4454    0.0000 C   0  0  0  0  0  0  0  0  0  0  0  0
   11.5881   -7.8809    0.0000 C   0  0  0  0  0  0  0  0  0  0  0  0
   10.2281  -10.2363    0.0000 N   0  0  0  0  0  0  0  0  0  0  0  0
   12.9298   -7.1041    0.0000 O   0  0  0  0  0  0  0  0  0  0  0  0
   17.0160   -7.8929    0.0000 O   0  0  0  0  0  0  0  0  0  0  0  0
   15.6483  -14.9359    0.0000 O   0  0  0  0  0  0  0  0  0  0  0  0
   11.5833  -14.1593    0.0000 O   0  0  0  0  0  0  0  0  0  0  0  0
   19.9204  -12.0963    0.0000 C   0  0  0  0  0  0  0  0  0  0  0  0
   20.9460  -10.9090    0.0000 C   0  0  0  0  0  0  0  0  0  0  0  0
   20.4305   -9.4271    0.0000 O   0  0  0  0  0  0  0  0  0  0  0  0
   22.4870  -11.2035    0.0000 O   0  0  0  0  0  0  0  0  0  0  0  0
  1  2  1  0
  3  4  1  0
  5  6  1  0
  6  7  1  0
  3  7  1  0
  8  9  1  0
 10 11  1  0
 12 13  1  0
 12 14  1  0
 10 14  1  0
 13 15  1  0
  8 15  1  0
  9 16  1  0
  5 16  1  0
  4 17  1  0
  1 17  1  0
  2 18  1  0
 11 18  1  0
  7 19  1  0
 19 20  1  0
 20 21  1  0
 20 22  2  0
M  END
>  <Name>  (181) 
A2-18C6-2

>  <logK_Dy_z=3.0_T=25_I=1.0>  (181) 
7.15

$$$$

     RDKit          2D

 28 28  0  0  0  0  0  0  0  0999 V2000
   15.0695  -12.6647    0.0000 C   0  0  0  0  0  0  0  0  0  0  0  0
   13.8947  -13.3530    0.0000 C   0  0  0  0  0  0  0  0  0  0  0  0
   17.4314  -11.2951    0.0000 C   0  0  0  0  0  0  0  0  0  0  0  0
   17.4411  -12.6673    0.0000 C   0  0  0  0  0  0  0  0  0  0  0  0
   17.4294   -8.5772    0.0000 C   0  0  0  0  0  0  0  0  0  0  0  0
   18.6078   -9.2575    0.0000 C   0  0  0  0  0  0  0  0  0  0  0  0
   18.6246  -10.6174    0.0000 N   0  0  0  0  0  0  0  0  0  0  0  0
   15.0788   -7.2201    0.0000 C   0  0  0  0  0  0  0  0  0  0  0  0
   16.2536   -6.5317    0.0000 C   0  0  0  0  0  0  0  0  0  0  0  0
   11.5221  -10.6166    0.0000 C   0  0  0  0  0  0  0  0  0  0  0  0
   12.7189  -11.3075    0.0000 C   0  0  0  0  0  0  0  0  0  0  0  0
   12.7143   -7.2051    0.0000 C   0  0  0  0  0  0  0  0  0  0  0  0
   12.7056   -8.5667    0.0000 C   0  0  0  0  0  0  0  0  0  0  0  0
   11.5308   -9.2550    0.0000 N   0  0  0  0  0  0  0  0  0  0  0  0
   13.8820   -6.5291    0.0000 O   0  0  0  0  0  0  0  0  0  0  0  0
   17.4381   -7.2156    0.0000 O   0  0  0  0  0  0  0  0  0  0  0  0
   16.2479  -13.3450    0.0000 O   0  0  0  0  0  0  0  0  0  0  0  0
   12.7102  -12.6691    0.0000 O   0  0  0  0  0  0  0  0  0  0  0  0
   19.9658  -10.8737    0.0000 C   0  0  0  0  0  0  0  0  0  0  0  0
   20.4144  -12.1634    0.0000 C   0  0  0  0  0  0  0  0  0  0  0  0
   21.7555  -12.4197    0.0000 C   0  0  0  0  0  0  0  0  0  0  0  0
   10.1901   -8.9962    0.0000 C   0  0  0  0  0  0  0  0  0  0  0  0
    9.2957  -10.0279    0.0000 C   0  0  0  0  0  0  0  0  0  0  0  0
    7.9550   -9.7692    0.0000 C   0  0  0  0  0  0  0  0  0  0  0  0
   22.6481  -11.3864    0.0000 O   0  0  0  0  0  0  0  0  0  0  0  0
   22.2042  -13.7093    0.0000 O   0  0  0  0  0  0  0  0  0  0  0  0
    7.5088   -8.4787    0.0000 O   0  0  0  0  0  0  0  0  0  0  0  0
    7.0606  -10.8009    0.0000 O   0  0  0  0  0  0  0  0  0  0  0  0
  1  2  1  0
  3  4  1  0
  5  6  1  0
  6  7  1  0
  3  7  1  0
  8  9  1  0
 10 11  1  0
 12 13  1  0
 13 14  1  0
 10 14  1  0
 12 15  1  0
  8 15  1  0
  9 16  1  0
  5 16  1  0
  4 17  1  0
  1 17  1  0
  2 18  1  0
 11 18  1  0
  7 19  1  0
 19 20  1  0
 20 21  1  0
 14 22  1  0
 22 23  1  0
 23 24  1  0
 21 25  1  0
 21 26  2  0
 24 27  2  0
 24 28  1  0
M  END
>  <Name>  (182) 
A2-18C6-22

>  <logK_Dy_z=3.0_T=25_I=1.0>  (182) 
6.7

$$$$

     RDKit          2D

 21 21  0  0  0  0  0  0  0  0999 V2000
    8.5663  -10.5633    0.0000 C   0  0  0  0  0  0  0  0  0  0  0  0
   10.2013  -12.1589    0.0000 C   0  0  0  0  0  0  0  0  0  0  0  0
   12.5013   -6.0591    0.0000 C   0  0  0  0  0  0  0  0  0  0  0  0
   10.2954   -6.5578    0.0000 C   0  0  0  0  0  0  0  0  0  0  0  0
   15.2437   -9.3640    0.0000 C   0  0  0  0  0  0  0  0  0  0  0  0
   14.4581  -11.4886    0.0000 C   0  0  0  0  0  0  0  0  0  0  0  0
   14.6630   -7.0739    0.0000 N   0  0  0  0  0  0  0  0  0  0  0  0
    8.5663   -8.1427    0.0000 N   0  0  0  0  0  0  0  0  0  0  0  0
   12.4542  -12.7828    0.0000 N   0  0  0  0  0  0  0  0  0  0  0  0
   16.5721   -5.4738    0.0000 C   0  0  0  0  0  0  0  0  0  0  0  0
   18.8758   -6.2822    0.0000 C   0  0  0  0  0  0  0  0  0  0  0  0
    6.2383   -7.2440    0.0000 C   0  0  0  0  0  0  0  0  0  0  0  0
    5.8223   -4.8431    0.0000 C   0  0  0  0  0  0  0  0  0  0  0  0
   12.9324  -15.2383    0.0000 C   0  0  0  0  0  0  0  0  0  0  0  0
   11.1129  -16.8597    0.0000 C   0  0  0  0  0  0  0  0  0  0  0  0
   19.4724   -8.6611    0.0000 O   0  0  0  0  0  0  0  0  0  0  0  0
   20.7112   -4.6336    0.0000 O   0  0  0  0  0  0  0  0  0  0  0  0
    7.6144   -3.1693    0.0000 O   0  0  0  0  0  0  0  0  0  0  0  0
    3.4852   -4.0521    0.0000 O   0  0  0  0  0  0  0  0  0  0  0  0
    8.7454  -16.2236    0.0000 O   0  0  0  0  0  0  0  0  0  0  0  0
   11.6663  -19.2644    0.0000 O   0  0  0  0  0  0  0  0  0  0  0  0
  1  2  1  0
  3  4  1  0
  5  6  1  0
  5  7  1  0
  3  7  1  0
  4  8  1  0
  1  8  1  0
  2  9  1  0
  6  9  1  0
  7 10  1  0
 10 11  1  0
  8 12  1  0
 12 13  1  0
  9 14  1  0
 14 15  1  0
 11 16  1  0
 11 17  2  0
 13 18  1  0
 13 19  2  0
 15 20  2  0
 15 21  1  0
M  END
>  <Name>  (183) 
A3-9C3-5

>  <logK_Dy_z=3.0_T=25_I=1.0>  (183) 
15.11

$$$$

     RDKit          2D

 21 21  0  0  0  0  0  0  0  0999 V2000
    8.5663  -10.5633    0.0000 C   0  0  0  0  0  0  0  0  0  0  0  0
   10.2013  -12.1589    0.0000 C   0  0  0  0  0  0  0  0  0  0  0  0
   12.5013   -6.0591    0.0000 C   0  0  0  0  0  0  0  0  0  0  0  0
   10.2954   -6.5578    0.0000 C   0  0  0  0  0  0  0  0  0  0  0  0
   15.2437   -9.3640    0.0000 C   0  0  0  0  0  0  0  0  0  0  0  0
   14.4581  -11.4886    0.0000 C   0  0  0  0  0  0  0  0  0  0  0  0
   14.6630   -7.0739    0.0000 N   0  0  0  0  0  0  0  0  0  0  0  0
    8.5663   -8.1427    0.0000 N   0  0  0  0  0  0  0  0  0  0  0  0
   12.4542  -12.7828    0.0000 N   0  0  0  0  0  0  0  0  0  0  0  0
   16.5721   -5.4738    0.0000 C   0  0  0  0  0  0  0  0  0  0  0  0
   18.8758   -6.2822    0.0000 C   0  0  0  0  0  0  0  0  0  0  0  0
    6.2383   -7.2440    0.0000 C   0  0  0  0  0  0  0  0  0  0  0  0
    5.8223   -4.8431    0.0000 C   0  0  0  0  0  0  0  0  0  0  0  0
   12.9324  -15.2383    0.0000 C   0  0  0  0  0  0  0  0  0  0  0  0
   11.1129  -16.8597    0.0000 C   0  0  0  0  0  0  0  0  0  0  0  0
   19.4724   -8.6611    0.0000 O   0  0  0  0  0  0  0  0  0  0  0  0
   20.7112   -4.6336    0.0000 O   0  0  0  0  0  0  0  0  0  0  0  0
    7.6144   -3.1693    0.0000 O   0  0  0  0  0  0  0  0  0  0  0  0
    3.4852   -4.0521    0.0000 O   0  0  0  0  0  0  0  0  0  0  0  0
    8.7454  -16.2236    0.0000 O   0  0  0  0  0  0  0  0  0  0  0  0
   11.6663  -19.2644    0.0000 O   0  0  0  0  0  0  0  0  0  0  0  0
  1  2  1  0
  3  4  1  0
  5  6  1  0
  5  7  1  0
  3  7  1  0
  4  8  1  0
  1  8  1  0
  2  9  1  0
  6  9  1  0
  7 10  1  0
 10 11  1  0
  8 12  1  0
 12 13  1  0
  9 14  1  0
 14 15  1  0
 11 16  1  0
 11 17  2  0
 13 18  1  0
 13 19  2  0
 15 20  2  0
 15 21  1  0
M  END
>  <Name>  (184) 
A3-9C3-5

>  <logK_Dy_z=3.0_T=25_I=1.0>  (184) 
15.11

$$$$

     RDKit          2D

 32 32  0  0  0  0  0  0  0  0999 V2000
   15.9610  -13.5791    0.0000 C   0  0  0  0  0  0  0  0  0  0  0  0
   14.8233  -12.9216    0.0000 C   0  0  0  0  0  0  0  0  0  0  0  0
   12.5058  -11.5834    0.0000 C   0  0  0  0  0  0  0  0  0  0  0  0
   12.5058  -12.9216    0.0000 C   0  0  0  0  0  0  0  0  0  0  0  0
   15.9610  -10.9119    0.0000 C   0  0  0  0  0  0  0  0  0  0  0  0
   17.1220  -11.5834    0.0000 C   0  0  0  0  0  0  0  0  0  0  0  0
   14.8233   -8.9162    0.0000 C   0  0  0  0  0  0  0  0  0  0  0  0
   13.6622   -9.5737    0.0000 C   0  0  0  0  0  0  0  0  0  0  0  0
   15.9610   -9.5737    0.0000 N   0  0  0  0  0  0  0  0  0  0  0  0
   13.6622  -10.9119    0.0000 N   0  0  0  0  0  0  0  0  0  0  0  0
   17.1220  -12.9216    0.0000 N   0  0  0  0  0  0  0  0  0  0  0  0
   13.6622  -13.5791    0.0000 N   0  0  0  0  0  0  0  0  0  0  0  0
   12.5099  -10.2423    0.0000 C   0  0  0  0  0  0  0  0  0  0  0  0
   11.3539  -10.9054    0.0000 P   0  0  0  0  0  0  0  0  0  0  0  0
   16.6219   -8.4164    0.0000 C   0  0  0  0  0  0  0  0  0  0  0  0
   15.9502   -7.2654    0.0000 P   0  0  0  0  0  0  0  0  0  0  0  0
   18.2745  -13.5909    0.0000 C   0  0  0  0  0  0  0  0  0  0  0  0
   19.4304  -12.9275    0.0000 P   0  0  0  0  0  0  0  0  0  0  0  0
   12.9964  -14.7335    0.0000 C   0  0  0  0  0  0  0  0  0  0  0  0
   11.6637  -14.7341    0.0000 P   0  0  0  0  0  0  0  0  0  0  0  0
   17.1012   -6.5936    0.0000 O   0  0  0  0  0  0  0  0  0  0  0  0
   14.7992   -7.9371    0.0000 O   0  0  0  0  0  0  0  0  0  0  0  0
   20.0938  -14.0833    0.0000 O   0  0  0  0  0  0  0  0  0  0  0  0
   18.7669  -11.7716    0.0000 O   0  0  0  0  0  0  0  0  0  0  0  0
   11.6643  -16.0669    0.0000 O   0  0  0  0  0  0  0  0  0  0  0  0
   11.6631  -13.4014    0.0000 O   0  0  0  0  0  0  0  0  0  0  0  0
   10.6908   -9.7494    0.0000 O   0  0  0  0  0  0  0  0  0  0  0  0
   12.0170  -12.0614    0.0000 O   0  0  0  0  0  0  0  0  0  0  0  0
   10.3310  -14.7348    0.0000 O   0  0  0  0  0  0  0  0  0  0  0  0
   10.1979  -11.5685    0.0000 O   0  0  0  0  0  0  0  0  0  0  0  0
   15.2784   -6.1143    0.0000 O   0  0  0  0  0  0  0  0  0  0  0  0
   20.5862  -12.2640    0.0000 O   0  0  0  0  0  0  0  0  0  0  0  0
  1  2  1  0
  3  4  1  0
  5  6  1  0
  7  8  1  0
  7  9  1  0
  5  9  1  0
  8 10  1  0
  3 10  1  0
  6 11  1  0
  1 11  1  0
  2 12  1  0
  4 12  1  0
 10 13  1  0
 13 14  1  0
  9 15  1  0
 15 16  1  0
 11 17  1  0
 17 18  1  0
 12 19  1  0
 19 20  1  0
 16 21  1  0
 16 22  2  0
 18 23  2  0
 18 24  1  0
 20 25  2  0
 20 26  1  0
 14 27  1  0
 14 28  2  0
 20 29  1  0
 14 30  1  0
 16 31  1  0
 18 32  1  0
M  END
>  <Name>  (185) 
A4-12C4-6

>  <logK_Dy_z=3.0_T=25_I=1.0>  (185) 
25.0

$$$$

     RDKit          2D

 37 37  0  0  0  0  0  0  0  0999 V2000
   11.0560  -11.9957    0.0000 N   0  0  0  0  0  0  0  0  0  0  0  0
   12.5169  -11.1645    0.0000 C   0  0  0  0  0  0  0  0  0  0  0  0
   12.5169   -9.4769    0.0000 C   0  0  0  0  0  0  0  0  0  0  0  0
   13.9904   -8.6205    0.0000 N   0  0  0  0  0  0  0  0  0  0  0  0
   15.4513   -9.4769    0.0000 C   0  0  0  0  0  0  0  0  0  0  0  0
   15.4513  -11.1645    0.0000 C   0  0  0  0  0  0  0  0  0  0  0  0
   16.9122  -11.9957    0.0000 N   0  0  0  0  0  0  0  0  0  0  0  0
   16.9122  -13.6959    0.0000 C   0  0  0  0  0  0  0  0  0  0  0  0
   18.3731  -14.5523    0.0000 C   0  0  0  0  0  0  0  0  0  0  0  0
   18.3731  -16.2399    0.0000 N   0  0  0  0  0  0  0  0  0  0  0  0
   11.0560  -13.6959    0.0000 C   0  0  0  0  0  0  0  0  0  0  0  0
    9.5951  -14.5523    0.0000 C   0  0  0  0  0  0  0  0  0  0  0  0
    9.5951  -16.2399    0.0000 O   0  0  0  0  0  0  0  0  0  0  0  0
   15.4513  -19.6151    0.0000 O   0  0  0  0  0  0  0  0  0  0  0  0
   12.5169  -19.6151    0.0000 O   0  0  0  0  0  0  0  0  0  0  0  0
   11.0560  -18.7587    0.0000 C   0  0  0  0  0  0  0  0  0  0  0  0
   11.0560  -17.0711    0.0000 C   0  0  0  0  0  0  0  0  0  0  0  0
   14.9224  -21.2146    0.0000 C   0  0  0  0  0  0  0  0  0  0  0  0
   13.0459  -21.2146    0.0000 C   0  0  0  0  0  0  0  0  0  0  0  0
   16.9122  -18.7587    0.0000 C   0  0  0  0  0  0  0  0  0  0  0  0
   16.9122  -17.0711    0.0000 C   0  0  0  0  0  0  0  0  0  0  0  0
    9.8819  -10.7685    0.0000 C   0  0  0  0  0  0  0  0  0  0  0  0
    8.2321  -11.1717    0.0000 C   0  0  0  0  0  0  0  0  0  0  0  0
   13.9920   -6.9221    0.0000 C   0  0  0  0  0  0  0  0  0  0  0  0
   15.4637   -6.0743    0.0000 C   0  0  0  0  0  0  0  0  0  0  0  0
   18.0862  -10.7684    0.0000 C   0  0  0  0  0  0  0  0  0  0  0  0
   19.7361  -11.1714    0.0000 C   0  0  0  0  0  0  0  0  0  0  0  0
   20.0130  -16.6820    0.0000 C   0  0  0  0  0  0  0  0  0  0  0  0
   20.4500  -18.3233    0.0000 C   0  0  0  0  0  0  0  0  0  0  0  0
    7.0580   -9.9445    0.0000 O   0  0  0  0  0  0  0  0  0  0  0  0
    7.7563  -12.8021    0.0000 O   0  0  0  0  0  0  0  0  0  0  0  0
   15.4653   -4.3759    0.0000 O   0  0  0  0  0  0  0  0  0  0  0  0
   16.9337   -6.9249    0.0000 O   0  0  0  0  0  0  0  0  0  0  0  0
   20.9101   -9.9440    0.0000 O   0  0  0  0  0  0  0  0  0  0  0  0
   20.2120  -12.8018    0.0000 O   0  0  0  0  0  0  0  0  0  0  0  0
   22.0899  -18.7654    0.0000 O   0  0  0  0  0  0  0  0  0  0  0  0
   19.2472  -19.5224    0.0000 O   0  0  0  0  0  0  0  0  0  0  0  0
  1  2  1  0
  2  3  1  0
  3  4  1  0
  4  5  1  0
  5  6  1  0
  6  7  1  0
  7  8  1  0
  8  9  1  0
  9 10  1  0
  1 11  1  0
 11 12  1  0
 12 13  1  0
 15 16  1  0
 16 17  1  0
 17 13  1  0
 14 18  1  0
 18 19  1  0
 19 15  1  0
 14 20  1  0
 20 21  1  0
 21 10  1  0
  1 22  1  0
 22 23  1  0
  4 24  1  0
 24 25  1  0
  7 26  1  0
 26 27  1  0
 10 28  1  0
 28 29  1  0
 23 30  2  0
 23 31  1  0
 25 32  2  0
 25 33  1  0
 27 34  2  0
 27 35  1  0
 29 36  2  0
 29 37  1  0
M  END
>  <Name>  (186) 
A4-21C7-1

>  <logK_Dy_z=3.0_T=25_I=1.0>  (186) 
16.7

$$$$

     RDKit          2D

 40 40  0  0  0  0  0  0  0  0999 V2000
    9.1055  -11.5074    0.0000 O   0  0  0  0  0  0  0  0  0  0  0  0
    9.3413   -9.6576    0.0000 C   0  0  0  0  0  0  0  0  0  0  0  0
   10.0613   -7.9446    0.0000 C   0  0  0  0  0  0  0  0  0  0  0  0
   11.1911   -6.4667    0.0000 O   0  0  0  0  0  0  0  0  0  0  0  0
   12.6690   -5.3250    0.0000 C   0  0  0  0  0  0  0  0  0  0  0  0
   14.3946   -4.6169    0.0000 C   0  0  0  0  0  0  0  0  0  0  0  0
   16.2318   -4.3692    0.0000 O   0  0  0  0  0  0  0  0  0  0  0  0
   18.0689   -4.6169    0.0000 C   0  0  0  0  0  0  0  0  0  0  0  0
   19.7946   -5.3250    0.0000 C   0  0  0  0  0  0  0  0  0  0  0  0
   21.2717   -6.4667    0.0000 O   0  0  0  0  0  0  0  0  0  0  0  0
   22.4016   -7.9446    0.0000 C   0  0  0  0  0  0  0  0  0  0  0  0
   23.1089   -9.6576    0.0000 C   0  0  0  0  0  0  0  0  0  0  0  0
   23.3574  -11.5074    0.0000 N   0  0  0  0  0  0  0  0  0  0  0  0
   23.1089  -13.3572    0.0000 C   0  0  0  0  0  0  0  0  0  0  0  0
   22.4016  -15.0576    0.0000 C   0  0  0  0  0  0  0  0  0  0  0  0
   21.2717  -16.5348    0.0000 N   0  0  0  0  0  0  0  0  0  0  0  0
   19.7946  -17.6772    0.0000 C   0  0  0  0  0  0  0  0  0  0  0  0
   18.0689  -18.3846    0.0000 C   0  0  0  0  0  0  0  0  0  0  0  0
   16.2318  -18.6330    0.0000 N   0  0  0  0  0  0  0  0  0  0  0  0
   14.3946  -18.3846    0.0000 C   0  0  0  0  0  0  0  0  0  0  0  0
   12.6690  -17.6772    0.0000 C   0  0  0  0  0  0  0  0  0  0  0  0
   11.1911  -16.5348    0.0000 N   0  0  0  0  0  0  0  0  0  0  0  0
   10.0613  -15.0576    0.0000 C   0  0  0  0  0  0  0  0  0  0  0  0
    9.3413  -13.3572    0.0000 C   0  0  0  0  0  0  0  0  0  0  0  0
    9.8753  -17.8512    0.0000 C   0  0  0  0  0  0  0  0  0  0  0  0
    8.0753  -17.3790    0.0000 C   0  0  0  0  0  0  0  0  0  0  0  0
   16.2318  -20.4954    0.0000 C   0  0  0  0  0  0  0  0  0  0  0  0
   14.6177  -21.4266    0.0000 C   0  0  0  0  0  0  0  0  0  0  0  0
   22.5875  -17.8512    0.0000 C   0  0  0  0  0  0  0  0  0  0  0  0
   24.3882  -17.3790    0.0000 C   0  0  0  0  0  0  0  0  0  0  0  0
   25.2198  -11.5074    0.0000 C   0  0  0  0  0  0  0  0  0  0  0  0
   26.1510   -9.8934    0.0000 C   0  0  0  0  0  0  0  0  0  0  0  0
   25.2198   -8.2794    0.0000 O   0  0  0  0  0  0  0  0  0  0  0  0
   28.0128   -9.8934    0.0000 O   0  0  0  0  0  0  0  0  0  0  0  0
   24.8598  -15.5790    0.0000 O   0  0  0  0  0  0  0  0  0  0  0  0
   25.7040  -18.6954    0.0000 O   0  0  0  0  0  0  0  0  0  0  0  0
   13.0163  -20.4954    0.0000 O   0  0  0  0  0  0  0  0  0  0  0  0
   14.6177  -23.2884    0.0000 O   0  0  0  0  0  0  0  0  0  0  0  0
    7.5911  -15.5790    0.0000 O   0  0  0  0  0  0  0  0  0  0  0  0
    6.7595  -18.6954    0.0000 O   0  0  0  0  0  0  0  0  0  0  0  0
  1  2  1  0
  2  3  1  0
  3  4  1  0
  4  5  1  0
  5  6  1  0
  6  7  1  0
  7  8  1  0
  8  9  1  0
  9 10  1  0
 10 11  1  0
 11 12  1  0
 12 13  1  0
 13 14  1  0
 14 15  1  0
 15 16  1  0
 16 17  1  0
 17 18  1  0
 18 19  1  0
 19 20  1  0
 20 21  1  0
 21 22  1  0
 22 23  1  0
 23 24  1  0
 24  1  1  0
 22 25  1  0
 25 26  1  0
 19 27  1  0
 27 28  1  0
 16 29  1  0
 29 30  1  0
 13 31  1  0
 31 32  1  0
 32 33  2  0
 32 34  1  0
 30 35  2  0
 30 36  1  0
 28 37  2  0
 28 38  1  0
 26 39  1  0
 26 40  2  0
M  END
>  <Name>  (187) 
A4-24C8-1

>  <logK_Dy_z=3.0_T=25_I=1.0>  (187) 
18.0

$$$$

     RDKit          2D

 46 46  0  0  0  0  0  0  0  0999 V2000
    7.6832   -6.2928    0.0000 N   0  0  0  0  0  0  0  0  0  0  0  0
    9.7096   -5.6344    0.0000 C   0  0  0  0  0  0  0  0  0  0  0  0
   11.8287   -5.4117    0.0000 C   0  0  0  0  0  0  0  0  0  0  0  0
   13.9477   -5.6344    0.0000 N   0  0  0  0  0  0  0  0  0  0  0  0
   15.9742   -6.2928    0.0000 C   0  0  0  0  0  0  0  0  0  0  0  0
   17.8194   -7.3582    0.0000 C   0  0  0  0  0  0  0  0  0  0  0  0
   19.4028   -8.7839    0.0000 N   0  0  0  0  0  0  0  0  0  0  0  0
   20.6553  -10.5077    0.0000 C   0  0  0  0  0  0  0  0  0  0  0  0
   21.5219  -12.4542    0.0000 C   0  0  0  0  0  0  0  0  0  0  0  0
   21.9649  -14.5384    0.0000 N   0  0  0  0  0  0  0  0  0  0  0  0
   21.9649  -16.6691    0.0000 C   0  0  0  0  0  0  0  0  0  0  0  0
   21.5219  -18.7533    0.0000 C   0  0  0  0  0  0  0  0  0  0  0  0
   20.6553  -20.6998    0.0000 O   0  0  0  0  0  0  0  0  0  0  0  0
   19.4028  -22.4236    0.0000 C   0  0  0  0  0  0  0  0  0  0  0  0
   17.8194  -23.8493    0.0000 C   0  0  0  0  0  0  0  0  0  0  0  0
   15.9742  -24.9147    0.0000 O   0  0  0  0  0  0  0  0  0  0  0  0
   13.9477  -25.5731    0.0000 C   0  0  0  0  0  0  0  0  0  0  0  0
   11.8287  -25.7958    0.0000 C   0  0  0  0  0  0  0  0  0  0  0  0
    9.7096  -25.5731    0.0000 O   0  0  0  0  0  0  0  0  0  0  0  0
    7.6832  -24.9147    0.0000 C   0  0  0  0  0  0  0  0  0  0  0  0
    5.8379  -23.8493    0.0000 C   0  0  0  0  0  0  0  0  0  0  0  0
    4.2545  -22.4236    0.0000 O   0  0  0  0  0  0  0  0  0  0  0  0
    3.0021  -20.6998    0.0000 C   0  0  0  0  0  0  0  0  0  0  0  0
    2.1354  -18.7533    0.0000 C   0  0  0  0  0  0  0  0  0  0  0  0
    1.6924  -16.6691    0.0000 O   0  0  0  0  0  0  0  0  0  0  0  0
    1.6924  -14.5384    0.0000 C   0  0  0  0  0  0  0  0  0  0  0  0
    2.1354  -12.4542    0.0000 C   0  0  0  0  0  0  0  0  0  0  0  0
    3.0021  -10.5077    0.0000 O   0  0  0  0  0  0  0  0  0  0  0  0
    4.2545   -8.7839    0.0000 C   0  0  0  0  0  0  0  0  0  0  0  0
    5.8379   -7.3582    0.0000 C   0  0  0  0  0  0  0  0  0  0  0  0
    6.8165   -4.3463    0.0000 C   0  0  0  0  0  0  0  0  0  0  0  0
    8.0689   -2.6225    0.0000 C   0  0  0  0  0  0  0  0  0  0  0  0
   14.3907   -3.5502    0.0000 C   0  0  0  0  0  0  0  0  0  0  0  0
   16.4172   -2.8918    0.0000 C   0  0  0  0  0  0  0  0  0  0  0  0
   20.9863   -7.3582    0.0000 C   0  0  0  0  0  0  0  0  0  0  0  0
   23.0127   -8.0166    0.0000 C   0  0  0  0  0  0  0  0  0  0  0  0
   24.0840  -14.3157    0.0000 C   0  0  0  0  0  0  0  0  0  0  0  0
   25.3364  -16.0394    0.0000 C   0  0  0  0  0  0  0  0  0  0  0  0
    7.2023   -0.6760    0.0000 O   0  0  0  0  0  0  0  0  0  0  0  0
   10.1880   -2.8452    0.0000 O   0  0  0  0  0  0  0  0  0  0  0  0
   16.8602   -0.8076    0.0000 O   0  0  0  0  0  0  0  0  0  0  0  0
   18.0006   -4.3175    0.0000 O   0  0  0  0  0  0  0  0  0  0  0  0
   24.5962   -6.5909    0.0000 O   0  0  0  0  0  0  0  0  0  0  0  0
   23.4557  -10.1008    0.0000 O   0  0  0  0  0  0  0  0  0  0  0  0
   27.4554  -15.8167    0.0000 O   0  0  0  0  0  0  0  0  0  0  0  0
   24.4697  -17.9860    0.0000 O   0  0  0  0  0  0  0  0  0  0  0  0
  1  2  1  0
  2  3  1  0
  3  4  1  0
  4  5  1  0
  5  6  1  0
  6  7  1  0
  7  8  1  0
  8  9  1  0
  9 10  1  0
 10 11  1  0
 11 12  1  0
 12 13  1  0
 13 14  1  0
 14 15  1  0
 15 16  1  0
 16 17  1  0
 17 18  1  0
 18 19  1  0
 19 20  1  0
 20 21  1  0
 21 22  1  0
 22 23  1  0
 23 24  1  0
 24 25  1  0
 25 26  1  0
 26 27  1  0
 27 28  1  0
 28 29  1  0
 29 30  1  0
 30  1  1  0
  1 31  1  0
 31 32  1  0
  4 33  1  0
 33 34  1  0
  7 35  1  0
 35 36  1  0
 10 37  1  0
 37 38  1  0
 32 39  2  0
 32 40  1  0
 34 41  2  0
 34 42  1  0
 36 43  2  0
 36 44  1  0
 38 45  1  0
 38 46  2  0
M  END
>  <Name>  (188) 
A4-30C10-1

>  <logK_Dy_z=3.0_T=25_I=1.0>  (188) 
17.6

$$$$

     RDKit          2D

 18 18  0  0  0  0  0  0  0  0999 V2000
   17.0381   -9.4534    0.0000 C   0  0  0  0  0  0  0  0  0  0  0  0
   17.7509  -10.6880    0.0000 C   0  0  0  0  0  0  0  0  0  0  0  0
   17.0362  -14.3845    0.0000 C   0  0  0  0  0  0  0  0  0  0  0  0
   17.7537  -13.1600    0.0000 C   0  0  0  0  0  0  0  0  0  0  0  0
   13.4932  -15.6197    0.0000 C   0  0  0  0  0  0  0  0  0  0  0  0
   14.8996  -15.6180    0.0000 C   0  0  0  0  0  0  0  0  0  0  0  0
   10.6411  -13.1467    0.0000 C   0  0  0  0  0  0  0  0  0  0  0  0
   11.3539  -14.3814    0.0000 C   0  0  0  0  0  0  0  0  0  0  0  0
   11.3429   -9.4577    0.0000 C   0  0  0  0  0  0  0  0  0  0  0  0
   10.6494  -10.6940    0.0000 C   0  0  0  0  0  0  0  0  0  0  0  0
   14.9098   -8.2342    0.0000 C   0  0  0  0  0  0  0  0  0  0  0  0
   13.4795   -8.2241    0.0000 C   0  0  0  0  0  0  0  0  0  0  0  0
   12.7732   -9.4678    0.0000 N   0  0  0  0  0  0  0  0  0  0  0  0
   11.3585  -11.9222    0.0000 N   0  0  0  0  0  0  0  0  0  0  0  0
   12.7730  -14.3723    0.0000 N   0  0  0  0  0  0  0  0  0  0  0  0
   15.6171  -14.3935    0.0000 N   0  0  0  0  0  0  0  0  0  0  0  0
   17.0335  -11.9125    0.0000 N   0  0  0  0  0  0  0  0  0  0  0  0
   15.6189   -9.4625    0.0000 N   0  0  0  0  0  0  0  0  0  0  0  0
  1  2  1  0
  3  4  1  0
  5  6  1  0
  7  8  1  0
  9 10  1  0
 11 12  1  0
 12 13  1  0
  9 13  1  0
 10 14  1  0
  7 14  1  0
  8 15  1  0
  5 15  1  0
  6 16  1  0
  3 16  1  0
  4 17  1  0
  2 17  1  0
  1 18  1  0
 11 18  1  0
M  END
>  <Name>  (189) 
A6-18C6-1

>  <logK_Dy_z=3.0_T=25_I=1.0>  (189) 
10.1

$$$$

     RDKit          2D

 13 13  0  0  0  0  0  0  0  0999 V2000
   18.2037   -9.6145    0.0000 C   0  0  0  0  0  0  0  0  0  0  0  0
   18.2037  -10.9445    0.0000 C   0  0  0  0  0  0  0  0  0  0  0  0
   17.0519   -8.9495    0.0000 C   0  0  0  0  0  0  0  0  0  0  0  0
   17.0519  -11.6095    0.0000 C   0  0  0  0  0  0  0  0  0  0  0  0
   15.9001   -9.6145    0.0000 C   0  0  0  0  0  0  0  0  0  0  0  0
   15.9001  -10.9445    0.0000 C   0  0  0  0  0  0  0  0  0  0  0  0
   14.7483   -8.9495    0.0000 N   0  0  0  0  0  0  0  0  0  0  0  0
   13.5965   -9.6145    0.0000 C   0  0  0  0  0  0  0  0  0  0  0  0
   12.4446   -8.9495    0.0000 C   0  0  0  0  0  0  0  0  0  0  0  0
   11.2928   -9.6145    0.0000 C   0  0  0  0  0  0  0  0  0  0  0  0
   10.1410   -8.9495    0.0000 C   0  0  0  0  0  0  0  0  0  0  0  0
   13.5965  -10.9445    0.0000 O   0  0  0  0  0  0  0  0  0  0  0  0
   11.2928  -10.9445    0.0000 O   0  0  0  0  0  0  0  0  0  0  0  0
  2  1  2  0
  3  1  1  0
  4  2  1  0
  5  3  2  0
  6  4  2  0
  6  5  1  0
  5  7  1  0
  7  8  1  0
  8  9  1  0
  9 10  1  0
 10 11  1  0
  8 12  2  0
 10 13  2  0
M  END
>  <Name>  (190) 
Acetoacetanilide

>  <logK_Dy_z=3.0_T=25_I=1.0>  (190) 
6.05

$$$$

     RDKit          2D

 23 25  0  0  1  0  0  0  0  0999 V2000
   13.6686  -10.6109    0.0000 C   0  0  0  0  0  0  0  0  0  0  0  0
   14.9874  -10.4717    0.0000 N   0  0  0  0  0  0  0  0  0  0  0  0
   13.1223   -9.3949    0.0000 N   0  0  0  0  0  0  0  0  0  0  0  0
   15.2633   -9.1782    0.0000 C   0  0  0  0  0  0  0  0  0  0  0  0
   14.1120   -8.5134    0.0000 C   0  0  0  0  0  0  0  0  0  0  0  0
   16.4150   -8.5129    0.0000 C   0  0  0  0  0  0  0  0  0  0  0  0
   16.4155   -7.1826    0.0000 N   0  0  0  0  0  0  0  0  0  0  0  0
   14.1123   -7.1835    0.0000 N   0  0  0  0  0  0  0  0  0  0  0  0
   15.2642   -6.5179    0.0000 C   0  0  0  0  0  0  0  0  0  0  0  0
    9.9713   -8.0466    0.0000 C   0  0  0  0  0  0  0  0  0  0  0  0
    9.6906   -9.3477    0.0000 C   0  0  0  0  0  0  0  0  0  0  0  0
   11.8284   -9.1188    0.0000 C   0  0  0  0  0  0  0  0  0  0  0  0
   10.8338  -10.0078    0.0000 C   0  0  0  0  0  0  0  0  0  0  0  0
    9.0775   -7.0596    0.0000 C   0  0  0  0  0  0  0  0  0  0  0  0
   11.2898   -7.9073    0.0000 O   0  0  0  0  0  0  0  0  0  0  0  0
    7.7822   -7.3355    0.0000 O   0  0  0  0  0  0  0  0  0  0  0  0
   17.5663   -9.1776    0.0000 N   0  0  0  0  0  0  0  0  0  0  0  0
   10.9733  -11.3268    0.0000 O   0  0  0  0  0  0  0  0  0  0  0  0
    8.4789   -9.8867    0.0000 O   0  0  0  0  0  0  0  0  0  0  0  0
    6.8884   -6.3485    0.0000 P   0  0  0  0  0  0  0  0  0  0  0  0
    7.8707   -5.4628    0.0000 O   0  0  0  0  0  0  0  0  0  0  0  0
    5.9062   -7.2347    0.0000 O   0  0  0  0  0  0  0  0  0  0  0  0
    5.9992   -5.3543    0.0000 O   0  0  0  0  0  0  0  0  0  0  0  0
  2  1  2  0
  3  1  1  0
  4  2  1  0
  5  3  1  0
  6  4  2  0
  5  4  1  0
  7  6  1  0
  8  5  2  0
  9  7  2  0
  9  8  1  0
 10 11  1  0
 12 13  1  0
 11 13  1  0
 10 14  1  1
 10 15  1  0
 15 12  1  0
 14 16  1  0
 12  3  1  1
  6 17  1  0
 13 18  1  0
 11 19  1  0
 16 20  1  0
 20 21  1  0
 20 22  1  0
 20 23  2  0
M  END
>  <Name>  (191) 
AMP

>  <logK_Dy_z=3.0_T=25_I=1.0>  (191) 
4.57

$$$$

     RDKit          2D

 10 10  0  0  0  0  0  0  0  0999 V2000
   15.1748   -9.0416    0.0000 C   0  0  0  0  0  0  0  0  0  0  0  0
   15.1748  -10.3716    0.0000 C   0  0  0  0  0  0  0  0  0  0  0  0
   14.0230   -8.3766    0.0000 C   0  0  0  0  0  0  0  0  0  0  0  0
   14.0230  -11.0366    0.0000 C   0  0  0  0  0  0  0  0  0  0  0  0
   12.8712   -9.0416    0.0000 C   0  0  0  0  0  0  0  0  0  0  0  0
   12.8712  -10.3716    0.0000 C   0  0  0  0  0  0  0  0  0  0  0  0
   16.3266   -8.3766    0.0000 N   0  0  0  0  0  0  0  0  0  0  0  0
   14.0230   -7.0466    0.0000 C   0  0  0  0  0  0  0  0  0  0  0  0
   15.1748   -6.3816    0.0000 O   0  0  0  0  0  0  0  0  0  0  0  0
   12.8712   -6.3816    0.0000 O   0  0  0  0  0  0  0  0  0  0  0  0
  2  1  2  0
  3  1  1  0
  4  2  1  0
  5  3  2  0
  6  4  2  0
  6  5  1  0
  1  7  1  0
  3  8  1  0
  8  9  2  0
  8 10  1  0
M  END
>  <Name>  (192) 
Anthranilic

>  <logK_Dy_z=3.0_T=25_I=1.0>  (192) 
2.27

$$$$

     RDKit          2D

  9  8  0  0  0  0  0  0  0  0999 V2000
   10.9579   -6.8899    0.0000 C   0  0  0  0  0  0  0  0  0  0  0  0
   13.6517   -8.4452    0.0000 C   0  0  0  0  0  0  0  0  0  0  0  0
   16.3455   -6.8899    0.0000 C   0  0  0  0  0  0  0  0  0  0  0  0
   19.0393   -8.4452    0.0000 C   0  0  0  0  0  0  0  0  0  0  0  0
    8.2641   -8.4452    0.0000 N   0  0  0  0  0  0  0  0  0  0  0  0
   16.3455   -3.7794    0.0000 N   0  0  0  0  0  0  0  0  0  0  0  0
   10.9579   -3.7794    0.0000 O   0  0  0  0  0  0  0  0  0  0  0  0
   21.7331   -6.8899    0.0000 O   0  0  0  0  0  0  0  0  0  0  0  0
   19.0393  -11.5557    0.0000 O   0  0  0  0  0  0  0  0  0  0  0  0
  1  2  1  0
  2  3  1  0
  3  4  1  0
  1  5  1  0
  3  6  1  0
  1  7  2  0
  4  8  2  0
  4  9  1  0
M  END
>  <Name>  (193) 
Asparagine

>  <logK_Dy_z=3.0_T=25_I=1.0>  (193) 
4.53

$$$$

     RDKit          2D

 31 33  0  0  1  0  0  0  0  0999 V2000
   14.6483   -9.9926    0.0000 C   0  0  0  0  0  0  0  0  0  0  0  0
   16.7572  -10.6761    0.0000 C   0  0  0  0  0  0  0  0  0  0  0  0
   17.4407  -12.8013    0.0000 C   0  0  0  0  0  0  0  0  0  0  0  0
   19.6692  -12.8013    0.0000 C   0  0  0  0  0  0  0  0  0  0  0  0
   20.3673  -10.6761    0.0000 C   0  0  0  0  0  0  0  0  0  0  0  0
   18.5545   -9.3694    0.0000 O   0  0  0  0  0  0  0  0  0  0  0  0
   16.1331  -14.5987    0.0000 O   0  0  0  0  0  0  0  0  0  0  0  0
   20.9914  -14.5987    0.0000 O   0  0  0  0  0  0  0  0  0  0  0  0
   22.4771   -9.9926    0.0000 N   0  0  0  0  0  0  0  0  0  0  0  0
   24.2899  -11.3001    0.0000 C   0  0  0  0  0  0  0  0  0  0  0  0
   26.0872   -9.9926    0.0000 N   0  0  0  0  0  0  0  0  0  0  0  0
   23.1752   -7.8845    0.0000 C   0  0  0  0  0  0  0  0  0  0  0  0
   25.4038   -7.8845    0.0000 C   0  0  0  0  0  0  0  0  0  0  0  0
   26.5185   -5.9529    0.0000 C   0  0  0  0  0  0  0  0  0  0  0  0
   28.7462   -5.9529    0.0000 N   0  0  0  0  0  0  0  0  0  0  0  0
   25.4038   -4.0213    0.0000 N   0  0  0  0  0  0  0  0  0  0  0  0
   23.1752   -4.0213    0.0000 C   0  0  0  0  0  0  0  0  0  0  0  0
   22.0614   -5.9529    0.0000 N   0  0  0  0  0  0  0  0  0  0  0  0
   12.9990  -11.4783    0.0000 O   0  0  0  0  0  0  0  0  0  0  0  0
   10.8746  -10.7949    0.0000 P   0  0  0  0  0  0  0  0  0  0  0  0
    8.7648  -10.0968    0.0000 O   0  0  0  0  0  0  0  0  0  0  0  0
    7.1009  -11.5980    0.0000 P   0  0  0  0  0  0  0  0  0  0  0  0
    5.4517  -13.0837    0.0000 O   0  0  0  0  0  0  0  0  0  0  0  0
    3.3272  -12.4002    0.0000 P   0  0  0  0  0  0  0  0  0  0  0  0
    4.0107  -10.2749    0.0000 O   0  0  0  0  0  0  0  0  0  0  0  0
    2.6438  -14.5091    0.0000 O   0  0  0  0  0  0  0  0  0  0  0  0
    1.2028  -11.7013    0.0000 O   0  0  0  0  0  0  0  0  0  0  0  0
    5.6152   -9.9332    0.0000 O   0  0  0  0  0  0  0  0  0  0  0  0
    8.5866  -13.2464    0.0000 O   0  0  0  0  0  0  0  0  0  0  0  0
   10.1911  -12.9046    0.0000 O   0  0  0  0  0  0  0  0  0  0  0  0
   11.5727   -8.6868    0.0000 O   0  0  0  0  0  0  0  0  0  0  0  0
  2  1  1  1
  2  3  1  0
  3  4  1  0
  2  6  1  0
  5  6  1  0
  5  4  1  0
  3  7  1  0
  4  8  1  0
  5  9  1  1
  9 10  1  0
 10 11  2  0
  9 12  1  0
 12 13  2  0
 13 11  1  0
 13 14  1  0
 14 15  1  0
 14 16  2  0
 16 17  1  0
 17 18  2  0
 18 12  1  0
  1 19  1  0
 19 20  1  0
 20 21  1  0
 21 22  1  0
 22 23  1  0
 23 24  1  0
 24 25  1  0
 24 26  2  0
 24 27  1  0
 22 28  2  0
 22 29  1  0
 20 30  2  0
 20 31  1  0
M  END
>  <Name>  (194) 
ATP

>  <logK_Dy_z=3.0_T=25_I=1.0>  (194) 
6.44

$$$$

     RDKit          2D

 12 12  0  0  0  0  0  0  0  0999 V2000
   17.3240   -8.6891    0.0000 C   0  0  0  0  0  0  0  0  0  0  0  0
   17.3240  -10.0191    0.0000 C   0  0  0  0  0  0  0  0  0  0  0  0
   16.1721   -8.0241    0.0000 C   0  0  0  0  0  0  0  0  0  0  0  0
   16.1721  -10.6841    0.0000 C   0  0  0  0  0  0  0  0  0  0  0  0
   15.0203   -8.6891    0.0000 C   0  0  0  0  0  0  0  0  0  0  0  0
   15.0203  -10.0191    0.0000 C   0  0  0  0  0  0  0  0  0  0  0  0
   18.4758   -8.0241    0.0000 C   0  0  0  0  0  0  0  0  0  0  0  0
   17.8108   -6.8723    0.0000 C   0  0  0  0  0  0  0  0  0  0  0  0
   19.6276   -7.3591    0.0000 C   0  0  0  0  0  0  0  0  0  0  0  0
   19.1408   -9.1759    0.0000 O   0  0  0  0  0  0  0  0  0  0  0  0
   19.6276   -6.0291    0.0000 O   0  0  0  0  0  0  0  0  0  0  0  0
   20.7794   -8.0241    0.0000 O   0  0  0  0  0  0  0  0  0  0  0  0
  2  1  2  0
  3  1  1  0
  4  2  1  0
  5  3  2  0
  6  4  2  0
  6  5  1  0
  1  7  1  0
  7  8  1  0
  7  9  1  0
  7 10  1  0
  9 11  2  0
  9 12  1  0
M  END
>  <Name>  (195) 
Atrolactic

>  <logK_Dy_z=3.0_T=25_I=1.0>  (195) 
3.24

$$$$

     RDKit          2D

 24 24  0  0  1  0  0  0  0  0999 V2000
   19.7628  -13.5804    0.0000 C   0  0  0  0  0  0  0  0  0  0  0  0
   19.7628  -14.9104    0.0000 C   0  0  0  0  0  0  0  0  0  0  0  0
   18.6110  -12.9154    0.0000 C   0  0  0  0  0  0  0  0  0  0  0  0
   18.6110  -15.5754    0.0000 C   0  0  0  0  0  0  0  0  0  0  0  0
   17.4592  -13.5804    0.0000 C   0  0  0  0  0  0  0  0  0  0  0  0
   17.4592  -14.9104    0.0000 C   0  0  0  0  0  0  0  0  0  0  0  0
   16.3074  -12.9154    0.0000 N   0  0  0  0  0  0  0  0  0  0  0  0
   18.6110  -11.5854    0.0000 N   0  0  0  0  0  0  0  0  0  0  0  0
   19.7628  -10.9204    0.0000 C   0  0  0  0  0  0  0  0  0  0  0  0
   20.9147  -11.5854    0.0000 C   0  0  0  0  0  0  0  0  0  0  0  0
   17.4592  -10.9204    0.0000 C   0  0  0  0  0  0  0  0  0  0  0  0
   17.4592   -9.5904    0.0000 C   0  0  0  0  0  0  0  0  0  0  0  0
   16.3074  -11.5854    0.0000 C   0  0  0  0  0  0  0  0  0  0  0  0
   15.1556  -10.9204    0.0000 C   0  0  0  0  0  0  0  0  0  0  0  0
   15.1556  -13.5804    0.0000 C   0  0  0  0  0  0  0  0  0  0  0  0
   15.1556  -14.9104    0.0000 C   0  0  0  0  0  0  0  0  0  0  0  0
   22.0665  -10.9204    0.0000 O   0  0  0  0  0  0  0  0  0  0  0  0
   20.9147  -12.9154    0.0000 O   0  0  0  0  0  0  0  0  0  0  0  0
   18.6110   -8.9254    0.0000 O   0  0  0  0  0  0  0  0  0  0  0  0
   16.3074   -8.9254    0.0000 O   0  0  0  0  0  0  0  0  0  0  0  0
   15.1556   -9.5904    0.0000 O   0  0  0  0  0  0  0  0  0  0  0  0
   14.0038  -11.5854    0.0000 O   0  0  0  0  0  0  0  0  0  0  0  0
   16.3074  -15.5754    0.0000 O   0  0  0  0  0  0  0  0  0  0  0  0
   14.0038  -15.5754    0.0000 O   0  0  0  0  0  0  0  0  0  0  0  0
  2  1  1  0
  3  1  1  0
  4  2  1  0
  5  3  1  0
  6  4  1  0
  6  5  1  0
  5  7  1  1
  3  8  1  6
  8  9  1  0
  9 10  1  0
  8 11  1  0
 11 12  1  0
  7 13  1  0
 13 14  1  0
  7 15  1  0
 15 16  1  0
 10 17  1  0
 10 18  2  0
 12 19  2  0
 12 20  1  0
 14 21  2  0
 14 22  1  0
 16 23  2  0
 16 24  1  0
M  END
>  <Name>  (196) 
CDTA

>  <logK_Dy_z=3.0_T=25_I=1.0>  (196) 
20.74

$$$$

     RDKit          2D

  1  0  0  0  0  0  0  0  0  0999 V2000
   11.1207   -8.8133    0.0000 Cl  0  0  0  0  0  0  0  0  0  0  0  0
M  CHG  1   1  -1
M  END
>  <Name>  (197) 
Chloride

>  <logK_Dy_z=3.0_T=25_I=1.0>  (197) 
0.31

$$$$

     RDKit          2D

  7  6  0  0  0  0  0  0  0  0999 V2000
   11.6513  -11.5141    0.0000 C   0  0  0  0  0  0  0  0  0  0  0  0
   13.8187  -10.2627    0.0000 C   0  0  0  0  0  0  0  0  0  0  0  0
   15.9861  -11.5141    0.0000 C   0  0  0  0  0  0  0  0  0  0  0  0
   11.6513  -14.0168    0.0000 S   0  0  0  0  0  0  0  0  0  0  0  0
   13.8187   -7.7600    0.0000 N   0  0  0  0  0  0  0  0  0  0  0  0
   18.1536  -10.2627    0.0000 O   0  0  0  0  0  0  0  0  0  0  0  0
   15.9861  -14.0168    0.0000 O   0  0  0  0  0  0  0  0  0  0  0  0
  1  2  1  0
  2  3  1  0
  1  4  1  0
  2  5  1  0
  3  6  1  0
  3  7  2  0
M  END
>  <Name>  (198) 
Cysteine

>  <logK_Dy_z=3.0_T=25_I=1.0>  (198) 
5.0

$$$$

     RDKit          2D

 20 20  0  0  0  0  0  0  0  0999 V2000
   15.2313  -15.5641    0.0000 N   0  0  0  0  0  0  0  0  0  0  0  0
   11.7482  -11.5227    0.0000 N   0  0  0  0  0  0  0  0  0  0  0  0
   13.5074  -12.5401    0.0000 C   0  0  0  0  0  0  0  0  0  0  0  0
   13.5074  -14.5679    0.0000 C   0  0  0  0  0  0  0  0  0  0  0  0
   16.9906  -14.5679    0.0000 C   0  0  0  0  0  0  0  0  0  0  0  0
   16.9906  -12.5401    0.0000 C   0  0  0  0  0  0  0  0  0  0  0  0
   18.7428  -11.5227    0.0000 N   0  0  0  0  0  0  0  0  0  0  0  0
   18.7428   -9.4950    0.0000 C   0  0  0  0  0  0  0  0  0  0  0  0
   16.9906   -8.4988    0.0000 C   0  0  0  0  0  0  0  0  0  0  0  0
   15.2313   -9.4950    0.0000 N   0  0  0  0  0  0  0  0  0  0  0  0
   13.5074   -8.4988    0.0000 C   0  0  0  0  0  0  0  0  0  0  0  0
   11.7482   -9.4950    0.0000 C   0  0  0  0  0  0  0  0  0  0  0  0
    9.7288  -11.5210    0.0000 C   0  0  0  0  0  0  0  0  0  0  0  0
   20.7621  -11.5210    0.0000 C   0  0  0  0  0  0  0  0  0  0  0  0
   21.7733  -13.2690    0.0000 C   0  0  0  0  0  0  0  0  0  0  0  0
    8.7206   -9.7714    0.0000 C   0  0  0  0  0  0  0  0  0  0  0  0
    9.7318   -8.0234    0.0000 O   0  0  0  0  0  0  0  0  0  0  0  0
    6.7012   -9.7697    0.0000 O   0  0  0  0  0  0  0  0  0  0  0  0
   23.7926  -13.2673    0.0000 O   0  0  0  0  0  0  0  0  0  0  0  0
   20.7651  -15.0187    0.0000 O   0  0  0  0  0  0  0  0  0  0  0  0
  3  4  1  0
  2  3  1  0
  1  4  1  0
  1  5  1  0
  5  6  1  0
  6  7  1  0
  7  8  1  0
  8  9  1  0
  9 10  1  0
 10 11  1  0
 11 12  1  0
 12  2  1  0
  2 13  1  0
  7 14  1  0
 14 15  1  0
 13 16  1  0
 16 17  2  0
 16 18  1  0
 15 19  2  0
 15 20  1  0
M  END
>  <Name>  (199) 
DO2A

>  <logK_Dy_z=3.0_T=25_I=1.0>  (199) 
13.13

$$$$

     RDKit          2D

 37 38  0  0  0  0  0  0  0  0999 V2000
   13.6741   -8.2529    0.0000 N   0  0  0  0  0  0  0  0  0  0  0  0
   14.9593   -8.5984    0.0000 C   0  0  0  0  0  0  0  0  0  0  0  0
   15.8896   -9.5381    0.0000 C   0  0  0  0  0  0  0  0  0  0  0  0
   16.2351  -10.8139    0.0000 N   0  0  0  0  0  0  0  0  0  0  0  0
   15.8896  -12.0991    0.0000 C   0  0  0  0  0  0  0  0  0  0  0  0
   14.9593  -13.0388    0.0000 C   0  0  0  0  0  0  0  0  0  0  0  0
   13.6741  -13.3843    0.0000 N   0  0  0  0  0  0  0  0  0  0  0  0
   12.3889  -13.0388    0.0000 C   0  0  0  0  0  0  0  0  0  0  0  0
   11.4492  -12.0991    0.0000 C   0  0  0  0  0  0  0  0  0  0  0  0
   11.1037  -10.8139    0.0000 N   0  0  0  0  0  0  0  0  0  0  0  0
   11.4492   -9.5381    0.0000 C   0  0  0  0  0  0  0  0  0  0  0  0
   12.3889   -8.5984    0.0000 C   0  0  0  0  0  0  0  0  0  0  0  0
   13.6741   -6.9233    0.0000 C   0  0  0  0  0  0  0  0  0  0  0  0
   14.8262   -6.2583    0.0000 C   0  0  0  0  0  0  0  0  0  0  0  0
   13.6741  -14.7139    0.0000 C   0  0  0  0  0  0  0  0  0  0  0  0
   14.8262  -15.3784    0.0000 C   0  0  0  0  0  0  0  0  0  0  0  0
   15.9694   -6.9233    0.0000 O   0  0  0  0  0  0  0  0  0  0  0  0
   14.8262   -4.9287    0.0000 O   0  0  0  0  0  0  0  0  0  0  0  0
   15.9694  -14.7139    0.0000 O   0  0  0  0  0  0  0  0  0  0  0  0
   14.8262  -16.7080    0.0000 O   0  0  0  0  0  0  0  0  0  0  0  0
    9.7741  -10.8139    0.0000 C   0  0  0  0  0  0  0  0  0  0  0  0
    9.1091  -11.9660    0.0000 C   0  0  0  0  0  0  0  0  0  0  0  0
    9.7741  -13.1186    0.0000 O   0  0  0  0  0  0  0  0  0  0  0  0
    7.7800  -11.9660    0.0000 O   0  0  0  0  0  0  0  0  0  0  0  0
   17.5647  -10.8139    0.0000 C   0  0  0  0  0  0  0  0  0  0  0  0
   18.2292   -9.6707    0.0000 C   0  0  0  0  0  0  0  0  0  0  0  0
   19.5588   -9.6707    0.0000 N   0  0  0  0  0  0  0  0  0  0  0  0
   20.2238   -8.5186    0.0000 S   0  0  0  0  0  0  0  0  0  0  0  0
   19.0712   -7.8541    0.0000 O   0  0  0  0  0  0  0  0  0  0  0  0
   21.3759   -9.1836    0.0000 O   0  0  0  0  0  0  0  0  0  0  0  0
   20.8884   -7.3665    0.0000 C   0  0  0  0  0  0  0  0  0  0  0  0
   20.2238   -6.2139    0.0000 C   0  0  0  0  0  0  0  0  0  0  0  0
   22.2179   -7.3665    0.0000 C   0  0  0  0  0  0  0  0  0  0  0  0
   20.8884   -5.0618    0.0000 C   0  0  0  0  0  0  0  0  0  0  0  0
   22.8825   -6.2139    0.0000 C   0  0  0  0  0  0  0  0  0  0  0  0
   22.2179   -5.0618    0.0000 C   0  0  0  0  0  0  0  0  0  0  0  0
   22.8825   -3.9097    0.0000 O   0  0  0  0  0  0  0  0  0  0  0  0
  1  2  1  0
  2  3  1  0
  3  4  1  0
  4  5  1  0
  5  6  1  0
  6  7  1  0
  7  8  1  0
  8  9  1  0
  9 10  1  0
 10 11  1  0
 11 12  1  0
 12  1  1  0
  1 13  1  0
 13 14  1  0
  7 15  1  0
 15 16  1  0
 14 17  2  0
 14 18  1  0
 16 19  2  0
 16 20  1  0
 10 21  1  0
 21 22  1  0
 22 23  2  0
 22 24  1  0
  4 25  1  0
 25 26  1  0
 26 27  1  0
 27 28  1  0
 28 29  2  0
 28 30  2  0
 32 31  2  0
 33 31  1  0
 34 32  1  0
 35 33  2  0
 36 34  2  0
 36 35  1  0
 28 31  1  0
 36 37  1  0
M  END
>  <Name>  (200) 
DO3A-SA

>  <logK_Dy_z=3.0_T=25_I=1.0>  (200) 
23.55

$$$$

     RDKit          3D

 26 30  0  0  0  0  0  0  0  0999 V2000
   16.4176  -11.3689    0.0000 C   0  0  0  0  0  0  0  0  0  0  0  0
   17.0827  -12.5207    0.0000 C   0  0  0  0  0  0  0  0  0  0  0  0
   15.0876  -11.3689    0.0000 C   0  0  0  0  0  0  0  0  0  0  0  0
   16.4176  -13.6726    0.0000 C   0  0  0  0  0  0  0  0  0  0  0  0
   14.4226  -12.5208    0.0000 C   0  0  0  0  0  0  0  0  0  0  0  0
   15.0876  -13.6726    0.0000 C   0  0  0  0  0  0  0  0  0  0  0  0
   17.0826  -10.2172    0.0000 N   0  0  0  0  0  0  0  0  0  0  0  0
   18.4126  -10.2172    0.0000 C   0  0  0  0  0  0  0  0  0  0  0  0
   18.4125  -12.5207    0.0000 C   0  0  0  0  0  0  0  0  0  0  0  0
   19.0775  -11.3690    0.0000 C   0  0  0  0  0  0  0  0  0  0  0  0
   14.4226  -10.2173    0.0000 N   0  0  0  0  0  0  0  0  0  0  0  0
   13.0926  -10.2174    0.0000 C   0  0  0  0  0  0  0  0  0  0  0  0
   13.0927  -12.5208    0.0000 C   0  0  0  0  0  0  0  0  0  0  0  0
   12.4277  -11.3691    0.0000 C   0  0  0  0  0  0  0  0  0  0  0  0
   19.0776   -9.0655    0.0000 C   0  0  0  0  0  0  0  0  0  0  0  0
   18.4126   -7.9138    0.0000 N   0  0  0  0  0  0  0  0  0  0  0  0
   20.4075   -9.0655    0.0000 C   0  0  0  0  0  0  0  0  0  0  0  0
   19.0777   -6.7620    0.0000 C   0  0  0  0  0  0  0  0  0  0  0  0
   21.0725   -7.9138    0.0000 C   0  0  0  0  0  0  0  0  0  0  0  0
   20.4075   -6.7620    0.0000 C   0  0  0  0  0  0  0  0  0  0  0  0
   12.4276   -9.0657    0.0000 C   0  0  0  0  0  0  0  0  0  0  0  0
   11.0978   -9.0656    0.0000 C   0  0  0  0  0  0  0  0  0  0  0  0
   13.0926   -7.9139    0.0000 N   0  0  0  0  0  0  0  0  0  0  0  0
   10.4328   -7.9138    0.0000 C   0  0  0  0  0  0  0  0  0  0  0  0
   12.4277   -6.7622    0.0000 C   0  0  0  0  0  0  0  0  0  0  0  0
   11.0978   -6.7621    0.0000 C   0  0  0  0  0  0  0  0  0  0  0  0
  3  1  2  0
  4  2  2  0
  6  4  1  0
  6  5  2  0
  7  1  1  0
  2  1  1  0
  8  7  2  0
  9  2  1  0
 10  8  1  0
 10  9  2  0
 11  3  1  0
  5  3  1  0
 12 11  2  0
 13  5  1  0
 14 12  1  0
 14 13  2  0
 16 15  2  0
 17 15  1  0
 18 16  1  0
 19 17  2  0
 20 18  2  0
 20 19  1  0
  8 15  1  0
 22 21  2  0
 23 21  1  0
 24 22  1  0
 25 23  2  0
 26 24  2  0
 26 25  1  0
 12 21  1  0
M  END
>  <Name>  (201) 
DPP

>  <logK_Dy_z=3.0_T=25_I=1.0>  (201) 
5.54

$$$$

     RDKit          2D

 10  9  0  0  0  0  0  0  0  0999 V2000
   17.0551   -7.7150    0.0000 C   0  0  0  0  0  0  0  0  0  0  0  0
   18.6947   -8.6616    0.0000 C   0  0  0  0  0  0  0  0  0  0  0  0
   20.3343   -7.7150    0.0000 N   0  0  0  0  0  0  0  0  0  0  0  0
   15.4154   -8.6616    0.0000 N   0  0  0  0  0  0  0  0  0  0  0  0
   21.9740   -8.6616    0.0000 C   0  0  0  0  0  0  0  0  0  0  0  0
   13.7758   -7.7150    0.0000 C   0  0  0  0  0  0  0  0  0  0  0  0
   23.6136   -7.7150    0.0000 O   0  0  0  0  0  0  0  0  0  0  0  0
   21.9740  -10.5549    0.0000 O   0  0  0  0  0  0  0  0  0  0  0  0
   13.7758   -5.8217    0.0000 O   0  0  0  0  0  0  0  0  0  0  0  0
   12.1362   -8.6616    0.0000 O   0  0  0  0  0  0  0  0  0  0  0  0
  1  2  1  0
  2  3  1  0
  1  4  1  0
  3  5  1  0
  4  6  1  0
  5  7  1  0
  5  8  2  0
  6  9  1  0
  6 10  2  0
M  END
>  <Name>  (202) 
EDDA

>  <logK_Dy_z=3.0_T=25_I=1.0>  (202) 
8.31

$$$$

     RDKit          2D

 22 21  0  0  0  0  0  0  0  0999 V2000
   13.6224   -9.8308    0.0000 N   0  0  0  0  0  0  0  0  0  0  0  0
   14.7742  -10.4958    0.0000 C   0  0  0  0  0  0  0  0  0  0  0  0
   15.9260   -9.8308    0.0000 C   0  0  0  0  0  0  0  0  0  0  0  0
   17.0778  -10.4958    0.0000 N   0  0  0  0  0  0  0  0  0  0  0  0
   18.2297   -9.8308    0.0000 C   0  0  0  0  0  0  0  0  0  0  0  0
   18.2297   -8.5008    0.0000 C   0  0  0  0  0  0  0  0  0  0  0  0
   19.3815   -7.8358    0.0000 C   0  0  0  0  0  0  0  0  0  0  0  0
   19.3815   -6.5058    0.0000 C   0  0  0  0  0  0  0  0  0  0  0  0
   19.3815  -10.4958    0.0000 C   0  0  0  0  0  0  0  0  0  0  0  0
   12.4706  -10.4958    0.0000 C   0  0  0  0  0  0  0  0  0  0  0  0
   11.3188   -9.8308    0.0000 C   0  0  0  0  0  0  0  0  0  0  0  0
   12.4706  -11.8258    0.0000 C   0  0  0  0  0  0  0  0  0  0  0  0
   11.3188   -8.5008    0.0000 C   0  0  0  0  0  0  0  0  0  0  0  0
   10.1670   -7.8358    0.0000 C   0  0  0  0  0  0  0  0  0  0  0  0
   20.5333   -5.8408    0.0000 O   0  0  0  0  0  0  0  0  0  0  0  0
   18.2297   -5.8408    0.0000 O   0  0  0  0  0  0  0  0  0  0  0  0
   20.5333   -9.8308    0.0000 O   0  0  0  0  0  0  0  0  0  0  0  0
   19.3815  -11.8258    0.0000 O   0  0  0  0  0  0  0  0  0  0  0  0
   13.6224  -12.4908    0.0000 O   0  0  0  0  0  0  0  0  0  0  0  0
   11.3188  -12.4908    0.0000 O   0  0  0  0  0  0  0  0  0  0  0  0
   10.1670   -6.5058    0.0000 O   0  0  0  0  0  0  0  0  0  0  0  0
    9.0151   -8.5008    0.0000 O   0  0  0  0  0  0  0  0  0  0  0  0
  1  2  1  0
  2  3  1  0
  3  4  1  0
  4  5  1  0
  5  6  1  0
  6  7  1  0
  7  8  1  0
  5  9  1  0
  1 10  1  0
 10 11  1  0
 10 12  1  0
 11 13  1  0
 13 14  1  0
  8 15  2  0
  8 16  1  0
  9 17  2  0
  9 18  1  0
 12 19  2  0
 12 20  1  0
 14 21  2  0
 14 22  1  0
M  END
>  <Name>  (203) 
EDDG

>  <logK_Dy_z=3.0_T=25_I=1.0>  (203) 
9.0

$$$$

     RDKit          2D

 16 17  0  0  0  0  0  0  0  0999 V2000
   15.5558   -9.8699    0.0000 C   0  0  0  0  0  0  0  0  0  0  0  0
   14.8908  -11.0217    0.0000 C   0  0  0  0  0  0  0  0  0  0  0  0
   14.8908   -8.7181    0.0000 C   0  0  0  0  0  0  0  0  0  0  0  0
   13.5608  -11.0217    0.0000 C   0  0  0  0  0  0  0  0  0  0  0  0
   13.5608   -8.7181    0.0000 N   0  0  0  0  0  0  0  0  0  0  0  0
   12.8958   -9.8699    0.0000 C   0  0  0  0  0  0  0  0  0  0  0  0
   16.8858   -9.8699    0.0000 C   0  0  0  0  0  0  0  0  0  0  0  0
   17.5508   -8.7181    0.0000 C   0  0  0  0  0  0  0  0  0  0  0  0
   15.5558   -7.5663    0.0000 C   0  0  0  0  0  0  0  0  0  0  0  0
   16.8858   -7.5663    0.0000 C   0  0  0  0  0  0  0  0  0  0  0  0
   17.5508  -11.0217    0.0000 S   0  0  0  0  0  0  0  0  0  0  0  0
   17.5508   -6.4144    0.0000 I   0  0  0  0  0  0  0  0  0  0  0  0
   14.8908   -6.4144    0.0000 O   0  0  0  0  0  0  0  0  0  0  0  0
   18.7027  -10.3567    0.0000 O   0  0  0  0  0  0  0  0  0  0  0  0
   16.3990  -11.6867    0.0000 O   0  0  0  0  0  0  0  0  0  0  0  0
   18.2158  -12.1735    0.0000 O   0  0  0  0  0  0  0  0  0  0  0  0
  2  1  2  0
  4  2  1  0
  5  3  2  0
  6  4  2  0
  6  5  1  0
  7  1  1  0
  3  1  1  0
  8  7  2  0
  9  3  1  0
 10  8  1  0
 10  9  2  0
  7 11  1  0
 10 12  1  0
  9 13  1  0
 11 14  2  0
 11 15  2  0
 11 16  1  0
M  END
>  <Name>  (204) 
Ferron

>  <logK_Dy_z=3.0_T=25_I=1.0>  (204) 
5.86

$$$$

     RDKit          2D

  1  0  0  0  0  0  0  0  0  0999 V2000
   13.3801   -9.8708    0.0000 F   0  0  0  0  0  0  0  0  0  0  0  0
M  CHG  1   1  -1
M  END
>  <Name>  (205) 
Fluoride

>  <logK_Dy_z=3.0_T=25_I=1.0>  (205) 
3.38

$$$$

     RDKit          2D

 17 17  0  0  0  0  0  0  0  0999 V2000
   19.4786  -12.6150    0.0000 C   0  0  0  0  0  0  0  0  0  0  0  0
   19.4786  -13.9450    0.0000 C   0  0  0  0  0  0  0  0  0  0  0  0
   18.3268  -11.9500    0.0000 C   0  0  0  0  0  0  0  0  0  0  0  0
   18.3268  -14.6100    0.0000 C   0  0  0  0  0  0  0  0  0  0  0  0
   17.1750  -12.6150    0.0000 C   0  0  0  0  0  0  0  0  0  0  0  0
   17.1750  -13.9450    0.0000 C   0  0  0  0  0  0  0  0  0  0  0  0
   16.0232  -11.9500    0.0000 C   0  0  0  0  0  0  0  0  0  0  0  0
   18.3268  -10.6200    0.0000 O   0  0  0  0  0  0  0  0  0  0  0  0
   14.8713  -12.6150    0.0000 N   0  0  0  0  0  0  0  0  0  0  0  0
   13.7195  -11.9500    0.0000 C   0  0  0  0  0  0  0  0  0  0  0  0
   13.7195  -10.6200    0.0000 C   0  0  0  0  0  0  0  0  0  0  0  0
   14.8713  -13.9450    0.0000 C   0  0  0  0  0  0  0  0  0  0  0  0
   13.7195  -14.6100    0.0000 C   0  0  0  0  0  0  0  0  0  0  0  0
   14.8713   -9.9550    0.0000 O   0  0  0  0  0  0  0  0  0  0  0  0
   12.5677   -9.9550    0.0000 O   0  0  0  0  0  0  0  0  0  0  0  0
   12.5677  -13.9450    0.0000 O   0  0  0  0  0  0  0  0  0  0  0  0
   13.7195  -15.9400    0.0000 O   0  0  0  0  0  0  0  0  0  0  0  0
  2  1  2  0
  3  1  1  0
  4  2  1  0
  5  3  2  0
  6  4  2  0
  6  5  1  0
  5  7  1  0
  3  8  1  0
  7  9  1  0
  9 10  1  0
 10 11  1  0
  9 12  1  0
 12 13  1  0
 11 14  2  0
 11 15  1  0
 13 16  2  0
 13 17  1  0
M  END
>  <Name>  (206) 
HBIDA

>  <logK_Dy_z=3.0_T=25_I=1.0>  (206) 
14.07

$$$$

     RDKit          2D

  8  7  0  0  0  0  0  0  0  0999 V2000
    8.5433   -9.3339    0.0000 C   0  0  0  0  0  0  0  0  0  0  0  0
   10.6710   -8.1055    0.0000 C   0  0  0  0  0  0  0  0  0  0  0  0
   12.7987   -9.3339    0.0000 C   0  0  0  0  0  0  0  0  0  0  0  0
   14.9264   -8.1055    0.0000 C   0  0  0  0  0  0  0  0  0  0  0  0
   17.0542   -9.3339    0.0000 C   0  0  0  0  0  0  0  0  0  0  0  0
   19.1819   -8.1055    0.0000 C   0  0  0  0  0  0  0  0  0  0  0  0
   19.1819   -5.6486    0.0000 O   0  0  0  0  0  0  0  0  0  0  0  0
   21.3096   -9.3339    0.0000 O   0  0  0  0  0  0  0  0  0  0  0  0
  1  2  1  0
  2  3  1  0
  3  4  1  0
  4  5  1  0
  5  6  1  0
  6  7  1  0
  6  8  2  0
M  END
>  <Name>  (207) 
Hexanoic

>  <logK_Dy_z=3.0_T=25_I=1.0>  (207) 
2.94

$$$$

     RDKit          2D

 12 11  0  0  0  0  0  0  0  0999 V2000
   20.9335  -11.4964    0.0000 N   0  0  0  0  0  0  0  0  0  0  0  0
   23.2741  -10.1451    0.0000 C   0  0  0  0  0  0  0  0  0  0  0  0
   25.6147  -11.4964    0.0000 C   0  0  0  0  0  0  0  0  0  0  0  0
   18.5928  -10.1451    0.0000 C   0  0  0  0  0  0  0  0  0  0  0  0
   16.2522  -11.4964    0.0000 C   0  0  0  0  0  0  0  0  0  0  0  0
   20.9335  -14.1992    0.0000 C   0  0  0  0  0  0  0  0  0  0  0  0
   23.2741  -15.5505    0.0000 C   0  0  0  0  0  0  0  0  0  0  0  0
   27.9553  -10.1451    0.0000 O   0  0  0  0  0  0  0  0  0  0  0  0
   25.6147  -14.1992    0.0000 O   0  0  0  0  0  0  0  0  0  0  0  0
   13.9116  -10.1451    0.0000 O   0  0  0  0  0  0  0  0  0  0  0  0
   16.2522  -14.1992    0.0000 O   0  0  0  0  0  0  0  0  0  0  0  0
   23.2741  -18.2533    0.0000 O   0  0  0  0  0  0  0  0  0  0  0  0
  1  2  1  0
  2  3  1  0
  1  4  1  0
  4  5  1  0
  1  6  1  0
  6  7  1  0
  3  8  1  0
  3  9  2  0
  5 10  1  0
  5 11  2  0
  7 12  1  0
M  END
>  <Name>  (208) 
HIMDA

>  <logK_Dy_z=3.0_T=25_I=1.0>  (208) 
8.88

$$$$

     RDKit          2D

 23 23  0  0  0  0  0  0  0  0999 V2000
   10.6038  -12.9664    0.0000 N   0  0  0  0  0  0  0  0  0  0  0  0
   10.7526  -11.3546    0.0000 C   0  0  0  0  0  0  0  0  0  0  0  0
   12.3001  -10.9563    0.0000 C   0  0  0  0  0  0  0  0  0  0  0  0
   12.4925   -9.3356    0.0000 O   0  0  0  0  0  0  0  0  0  0  0  0
   14.1455   -8.9656    0.0000 C   0  0  0  0  0  0  0  0  0  0  0  0
   14.9714  -10.3960    0.0000 C   0  0  0  0  0  0  0  0  0  0  0  0
   16.5914  -10.0532    0.0000 O   0  0  0  0  0  0  0  0  0  0  0  0
   17.4172  -11.4836    0.0000 C   0  0  0  0  0  0  0  0  0  0  0  0
   16.3471  -12.7507    0.0000 C   0  0  0  0  0  0  0  0  0  0  0  0
   17.1249  -14.1683    0.0000 N   0  0  0  0  0  0  0  0  0  0  0  0
   16.0372  -15.4050    0.0000 C   0  0  0  0  0  0  0  0  0  0  0  0
   14.5183  -14.7562    0.0000 C   0  0  0  0  0  0  0  0  0  0  0  0
   13.3884  -15.9198    0.0000 O   0  0  0  0  0  0  0  0  0  0  0  0
   11.9469  -15.2506    0.0000 C   0  0  0  0  0  0  0  0  0  0  0  0
   12.0740  -13.6433    0.0000 C   0  0  0  0  0  0  0  0  0  0  0  0
    8.9844  -13.1886    0.0000 C   0  0  0  0  0  0  0  0  0  0  0  0
    7.9822  -11.8974    0.0000 C   0  0  0  0  0  0  0  0  0  0  0  0
   18.5607  -14.9495    0.0000 C   0  0  0  0  0  0  0  0  0  0  0  0
   19.9551  -14.0968    0.0000 C   0  0  0  0  0  0  0  0  0  0  0  0
   19.9138  -12.4628    0.0000 O   0  0  0  0  0  0  0  0  0  0  0  0
   21.3909  -14.8780    0.0000 O   0  0  0  0  0  0  0  0  0  0  0  0
    8.5994  -10.3838    0.0000 O   0  0  0  0  0  0  0  0  0  0  0  0
    6.3629  -12.1196    0.0000 O   0  0  0  0  0  0  0  0  0  0  0  0
  1  2  1  0
  2  3  1  0
  3  4  1  0
  4  5  1  0
  5  6  1  0
  6  7  1  0
  7  8  1  0
  8  9  1  0
  9 10  1  0
 10 11  1  0
 11 12  1  0
 12 13  1  0
 13 14  1  0
 14 15  1  0
 15  1  1  0
  1 16  1  0
 16 17  1  0
 10 18  1  0
 18 19  1  0
 19 20  1  0
 19 21  2  0
 17 22  1  0
 17 23  2  0
M  END
>  <Name>  (209) 
K21DA

>  <logK_Dy_z=3.0_T=25_I=1.0>  (209) 
11.55

$$$$

     RDKit          2D

 26 26  0  0  0  0  0  0  0  0999 V2000
   10.6977   -9.1423    0.0000 N   0  0  0  0  0  0  0  0  0  0  0  0
   11.9830   -8.4123    0.0000 C   0  0  0  0  0  0  0  0  0  0  0  0
   11.9726   -6.9342    0.0000 C   0  0  0  0  0  0  0  0  0  0  0  0
   13.2579   -6.2042    0.0000 O   0  0  0  0  0  0  0  0  0  0  0  0
   14.5272   -6.9370    0.0000 C   0  0  0  0  0  0  0  0  0  0  0  0
   15.7927   -6.1956    0.0000 C   0  0  0  0  0  0  0  0  0  0  0  0
   17.0686   -6.9322    0.0000 O   0  0  0  0  0  0  0  0  0  0  0  0
   17.0592   -8.3989    0.0000 C   0  0  0  0  0  0  0  0  0  0  0  0
   18.3484   -9.1432    0.0000 C   0  0  0  0  0  0  0  0  0  0  0  0
   18.3390  -10.6098    0.0000 N   0  0  0  0  0  0  0  0  0  0  0  0
   17.0735  -11.3513    0.0000 C   0  0  0  0  0  0  0  0  0  0  0  0
   17.0641  -12.8179    0.0000 C   0  0  0  0  0  0  0  0  0  0  0  0
   15.8063  -13.5461    0.0000 O   0  0  0  0  0  0  0  0  0  0  0  0
   14.5172  -12.8018    0.0000 C   0  0  0  0  0  0  0  0  0  0  0  0
   13.2517  -13.5433    0.0000 C   0  0  0  0  0  0  0  0  0  0  0  0
   11.9758  -12.8066    0.0000 O   0  0  0  0  0  0  0  0  0  0  0  0
   11.9851  -11.3400    0.0000 C   0  0  0  0  0  0  0  0  0  0  0  0
   10.7158  -10.6071    0.0000 C   0  0  0  0  0  0  0  0  0  0  0  0
    9.2531   -8.8662    0.0000 C   0  0  0  0  0  0  0  0  0  0  0  0
    8.2916   -9.9792    0.0000 C   0  0  0  0  0  0  0  0  0  0  0  0
   19.7831  -10.8886    0.0000 C   0  0  0  0  0  0  0  0  0  0  0  0
   20.2638  -12.2786    0.0000 C   0  0  0  0  0  0  0  0  0  0  0  0
    6.8469   -9.7032    0.0000 O   0  0  0  0  0  0  0  0  0  0  0  0
    8.7749  -11.3684    0.0000 O   0  0  0  0  0  0  0  0  0  0  0  0
   21.7080  -12.5573    0.0000 O   0  0  0  0  0  0  0  0  0  0  0  0
   19.3004  -13.3899    0.0000 O   0  0  0  0  0  0  0  0  0  0  0  0
  1  2  1  0
  2  3  1  0
  3  4  1  0
  4  5  1  0
  5  6  1  0
  6  7  1  0
  7  8  1  0
  8  9  1  0
  9 10  1  0
 10 11  1  0
 11 12  1  0
 12 13  1  0
 13 14  1  0
 14 15  1  0
 15 16  1  0
 16 17  1  0
 17 18  1  0
 18  1  1  0
  1 19  1  0
 19 20  1  0
 10 21  1  0
 21 22  1  0
 20 23  2  0
 20 24  1  0
 22 25  2  0
 22 26  1  0
M  END
>  <Name>  (210) 
K22DA

>  <logK_Dy_z=3.0_T=25_I=1.0>  (210) 
11.57

$$$$

     RDKit          2D

 28 28  0  0  0  0  0  0  0  0999 V2000
   12.3642  -10.1678    0.0000 N   0  0  0  0  0  0  0  0  0  0  0  0
   13.6495   -9.4378    0.0000 C   0  0  0  0  0  0  0  0  0  0  0  0
   13.6391   -7.9597    0.0000 C   0  0  0  0  0  0  0  0  0  0  0  0
   14.9244   -7.2297    0.0000 O   0  0  0  0  0  0  0  0  0  0  0  0
   16.1937   -7.9626    0.0000 C   0  0  0  0  0  0  0  0  0  0  0  0
   17.4591   -7.2211    0.0000 C   0  0  0  0  0  0  0  0  0  0  0  0
   18.7351   -7.9578    0.0000 O   0  0  0  0  0  0  0  0  0  0  0  0
   18.7257   -9.4244    0.0000 C   0  0  0  0  0  0  0  0  0  0  0  0
   20.0148  -10.1687    0.0000 C   0  0  0  0  0  0  0  0  0  0  0  0
   20.0055  -11.6354    0.0000 N   0  0  0  0  0  0  0  0  0  0  0  0
   18.7400  -12.3768    0.0000 C   0  0  0  0  0  0  0  0  0  0  0  0
   18.7307  -13.8434    0.0000 C   0  0  0  0  0  0  0  0  0  0  0  0
   17.4728  -14.5716    0.0000 O   0  0  0  0  0  0  0  0  0  0  0  0
   16.1837  -13.8274    0.0000 C   0  0  0  0  0  0  0  0  0  0  0  0
   14.9182  -14.5688    0.0000 C   0  0  0  0  0  0  0  0  0  0  0  0
   13.6423  -13.8322    0.0000 O   0  0  0  0  0  0  0  0  0  0  0  0
   13.6516  -12.3655    0.0000 C   0  0  0  0  0  0  0  0  0  0  0  0
   12.3823  -11.6327    0.0000 C   0  0  0  0  0  0  0  0  0  0  0  0
   10.9196   -9.8917    0.0000 C   0  0  0  0  0  0  0  0  0  0  0  0
    9.9581  -11.0048    0.0000 C   0  0  0  0  0  0  0  0  0  0  0  0
   21.4496  -11.9141    0.0000 C   0  0  0  0  0  0  0  0  0  0  0  0
   21.9304  -13.3041    0.0000 C   0  0  0  0  0  0  0  0  0  0  0  0
    8.5135  -10.7287    0.0000 O   0  0  0  0  0  0  0  0  0  0  0  0
   10.4414  -12.3939    0.0000 O   0  0  0  0  0  0  0  0  0  0  0  0
   23.3745  -13.5829    0.0000 O   0  0  0  0  0  0  0  0  0  0  0  0
   20.9669  -14.4154    0.0000 O   0  0  0  0  0  0  0  0  0  0  0  0
   10.4363   -8.5025    0.0000 C   0  0  0  0  0  0  0  0  0  0  0  0
   22.4131  -10.8028    0.0000 C   0  0  0  0  0  0  0  0  0  0  0  0
  1  2  1  0
  2  3  1  0
  3  4  1  0
  4  5  1  0
  5  6  1  0
  6  7  1  0
  7  8  1  0
  8  9  1  0
  9 10  1  0
 10 11  1  0
 11 12  1  0
 12 13  1  0
 13 14  1  0
 14 15  1  0
 15 16  1  0
 16 17  1  0
 17 18  1  0
 18  1  1  0
  1 19  1  0
 19 20  1  0
 10 21  1  0
 21 22  1  0
 20 23  2  0
 20 24  1  0
 22 25  2  0
 22 26  1  0
 19 27  1  0
 21 28  1  0
M  END
>  <Name>  (211) 
K22DAP

>  <logK_Dy_z=3.0_T=25_I=1.0>  (211) 
12.09

$$$$

     RDKit          2D

 28 28  0  0  0  0  0  0  0  0999 V2000
   10.7819   -8.7950    0.0000 N   0  0  0  0  0  0  0  0  0  0  0  0
   12.3587   -7.8994    0.0000 C   0  0  0  0  0  0  0  0  0  0  0  0
   12.3459   -6.0861    0.0000 C   0  0  0  0  0  0  0  0  0  0  0  0
   13.9227   -5.1905    0.0000 O   0  0  0  0  0  0  0  0  0  0  0  0
   15.4799   -6.0896    0.0000 C   0  0  0  0  0  0  0  0  0  0  0  0
   17.0324   -5.1800    0.0000 C   0  0  0  0  0  0  0  0  0  0  0  0
   18.5977   -6.0837    0.0000 O   0  0  0  0  0  0  0  0  0  0  0  0
   18.5862   -7.8830    0.0000 C   0  0  0  0  0  0  0  0  0  0  0  0
   20.1677   -8.7961    0.0000 C   0  0  0  0  0  0  0  0  0  0  0  0
   20.1562  -10.5954    0.0000 N   0  0  0  0  0  0  0  0  0  0  0  0
   18.6038  -11.5050    0.0000 C   0  0  0  0  0  0  0  0  0  0  0  0
   18.5923  -13.3043    0.0000 C   0  0  0  0  0  0  0  0  0  0  0  0
   17.0492  -14.1976    0.0000 O   0  0  0  0  0  0  0  0  0  0  0  0
   15.4676  -13.2845    0.0000 C   0  0  0  0  0  0  0  0  0  0  0  0
   13.9151  -14.1941    0.0000 C   0  0  0  0  0  0  0  0  0  0  0  0
   12.3498  -13.2904    0.0000 O   0  0  0  0  0  0  0  0  0  0  0  0
   12.3613  -11.4911    0.0000 C   0  0  0  0  0  0  0  0  0  0  0  0
   10.8041  -10.5921    0.0000 C   0  0  0  0  0  0  0  0  0  0  0  0
    9.0096   -8.4562    0.0000 C   0  0  0  0  0  0  0  0  0  0  0  0
    7.8301   -9.8218    0.0000 C   0  0  0  0  0  0  0  0  0  0  0  0
    6.0578   -9.4831    0.0000 C   0  0  0  0  0  0  0  0  0  0  0  0
   21.9279  -10.9373    0.0000 C   0  0  0  0  0  0  0  0  0  0  0  0
   22.5176  -12.6426    0.0000 C   0  0  0  0  0  0  0  0  0  0  0  0
   24.2894  -12.9846    0.0000 C   0  0  0  0  0  0  0  0  0  0  0  0
    5.4649   -7.7788    0.0000 O   0  0  0  0  0  0  0  0  0  0  0  0
    4.8783  -10.8486    0.0000 O   0  0  0  0  0  0  0  0  0  0  0  0
   25.4713  -11.6212    0.0000 O   0  0  0  0  0  0  0  0  0  0  0  0
   24.8791  -14.6899    0.0000 O   0  0  0  0  0  0  0  0  0  0  0  0
  1  2  1  0
  2  3  1  0
  3  4  1  0
  4  5  1  0
  5  6  1  0
  6  7  1  0
  7  8  1  0
  8  9  1  0
  9 10  1  0
 10 11  1  0
 11 12  1  0
 12 13  1  0
 13 14  1  0
 14 15  1  0
 15 16  1  0
 16 17  1  0
 17 18  1  0
 18  1  1  0
  1 19  1  0
 19 20  1  0
 20 21  1  0
 10 22  1  0
 22 23  1  0
 23 24  1  0
 21 25  2  0
 21 26  1  0
 24 27  2  0
 24 28  1  0
M  END
>  <Name>  (212) 
K22DP

>  <logK_Dy_z=3.0_T=25_I=1.0>  (212) 
6.7

$$$$

     RDKit          2D

 22 22  0  0  0  0  0  0  0  0999 V2000
   12.4123   -9.3666    0.0000 N   0  0  0  0  0  0  0  0  0  0  0  0
   13.6976   -8.6366    0.0000 C   0  0  0  0  0  0  0  0  0  0  0  0
   13.6871   -7.1585    0.0000 C   0  0  0  0  0  0  0  0  0  0  0  0
   14.9724   -6.4285    0.0000 O   0  0  0  0  0  0  0  0  0  0  0  0
   16.2417   -7.1613    0.0000 C   0  0  0  0  0  0  0  0  0  0  0  0
   17.5072   -6.4199    0.0000 C   0  0  0  0  0  0  0  0  0  0  0  0
   18.7832   -7.1566    0.0000 O   0  0  0  0  0  0  0  0  0  0  0  0
   18.7738   -8.6232    0.0000 C   0  0  0  0  0  0  0  0  0  0  0  0
   20.0629   -9.3675    0.0000 C   0  0  0  0  0  0  0  0  0  0  0  0
   20.0536  -10.8341    0.0000 N   0  0  0  0  0  0  0  0  0  0  0  0
   18.7881  -11.5756    0.0000 C   0  0  0  0  0  0  0  0  0  0  0  0
   18.7787  -13.0423    0.0000 C   0  0  0  0  0  0  0  0  0  0  0  0
   17.5209  -13.7705    0.0000 O   0  0  0  0  0  0  0  0  0  0  0  0
   16.2317  -13.0262    0.0000 C   0  0  0  0  0  0  0  0  0  0  0  0
   14.9662  -13.7676    0.0000 C   0  0  0  0  0  0  0  0  0  0  0  0
   13.6903  -13.0310    0.0000 O   0  0  0  0  0  0  0  0  0  0  0  0
   13.6997  -11.5643    0.0000 C   0  0  0  0  0  0  0  0  0  0  0  0
   12.4304  -10.8314    0.0000 C   0  0  0  0  0  0  0  0  0  0  0  0
   21.4978  -11.1129    0.0000 C   0  0  0  0  0  0  0  0  0  0  0  0
   21.9785  -12.5029    0.0000 C   0  0  0  0  0  0  0  0  0  0  0  0
   23.4226  -12.7817    0.0000 O   0  0  0  0  0  0  0  0  0  0  0  0
   21.0150  -13.6143    0.0000 O   0  0  0  0  0  0  0  0  0  0  0  0
  1  2  1  0
  2  3  1  0
  3  4  1  0
  4  5  1  0
  5  6  1  0
  6  7  1  0
  7  8  1  0
  8  9  1  0
  9 10  1  0
 10 11  1  0
 11 12  1  0
 12 13  1  0
 13 14  1  0
 14 15  1  0
 15 16  1  0
 16 17  1  0
 17 18  1  0
 18  1  1  0
 10 19  1  0
 19 20  1  0
 20 21  2  0
 20 22  1  0
M  END
>  <Name>  (213) 
K22MA

>  <logK_Dy_z=3.0_T=25_I=1.0>  (213) 
7.15

$$$$

     RDKit          2D

 22 22  0  0  0  0  0  0  0  0999 V2000
    9.5951  -14.3194    0.0000 C   0  0  0  0  0  0  0  0  0  0  0  0
   11.2972  -14.7755    0.0000 C   0  0  0  0  0  0  0  0  0  0  0  0
    8.3586   -9.6857    0.0000 C   0  0  0  0  0  0  0  0  0  0  0  0
    7.9025  -11.3878    0.0000 C   0  0  0  0  0  0  0  0  0  0  0  0
   14.6849  -11.3808    0.0000 C   0  0  0  0  0  0  0  0  0  0  0  0
   14.2288  -13.0829    0.0000 C   0  0  0  0  0  0  0  0  0  0  0  0
   11.2902   -7.9931    0.0000 C   0  0  0  0  0  0  0  0  0  0  0  0
   12.9923   -8.4492    0.0000 C   0  0  0  0  0  0  0  0  0  0  0  0
   14.2294   -9.6754    0.0000 N   0  0  0  0  0  0  0  0  0  0  0  0
    9.6057   -8.4365    0.0000 N   0  0  0  0  0  0  0  0  0  0  0  0
    8.3459  -13.0723    0.0000 O   0  0  0  0  0  0  0  0  0  0  0  0
   13.0026  -14.3201    0.0000 O   0  0  0  0  0  0  0  0  0  0  0  0
    6.1382  -11.3884    0.0000 O   0  0  0  0  0  0  0  0  0  0  0  0
   15.7565   -8.7937    0.0000 C   0  0  0  0  0  0  0  0  0  0  0  0
   17.2842   -9.6764    0.0000 C   0  0  0  0  0  0  0  0  0  0  0  0
    8.7241   -6.9094    0.0000 C   0  0  0  0  0  0  0  0  0  0  0  0
    9.5964   -5.3877    0.0000 C   0  0  0  0  0  0  0  0  0  0  0  0
   17.2848  -11.4408    0.0000 O   0  0  0  0  0  0  0  0  0  0  0  0
   18.8113   -8.7948    0.0000 O   0  0  0  0  0  0  0  0  0  0  0  0
   11.3502   -5.3932    0.0000 O   0  0  0  0  0  0  0  0  0  0  0  0
    8.7148   -3.8606    0.0000 O   0  0  0  0  0  0  0  0  0  0  0  0
   15.7565  -13.9656    0.0000 O   0  0  0  0  0  0  0  0  0  0  0  0
  1  2  1  0
  3  4  1  0
  5  6  1  0
  7  8  1  0
  8  9  1  0
  5  9  1  0
  7 10  1  0
  3 10  1  0
  4 11  1  0
  1 11  1  0
  6 12  1  0
  2 12  1  0
  4 13  2  0
  9 14  1  0
 14 15  1  0
 10 16  1  0
 16 17  1  0
 15 18  1  0
 15 19  2  0
 17 20  1  0
 17 21  2  0
  6 22  2  0
M  END
>  <Name>  (214) 
K2-A2-12C4-1

>  <logK_Dy_z=3.0_T=25_I=1.0>  (214) 
6.4

$$$$

     RDKit          2D

 25 25  0  0  0  0  0  0  0  0999 V2000
    7.0914   -9.6842    0.0000 C   0  0  0  0  0  0  0  0  0  0  0  0
    8.5103   -8.1115    0.0000 C   0  0  0  0  0  0  0  0  0  0  0  0
   12.5655   -7.2452    0.0000 C   0  0  0  0  0  0  0  0  0  0  0  0
   14.5250   -8.1133    0.0000 C   0  0  0  0  0  0  0  0  0  0  0  0
   16.3617  -13.8205    0.0000 C   0  0  0  0  0  0  0  0  0  0  0  0
   16.6041  -11.7144    0.0000 C   0  0  0  0  0  0  0  0  0  0  0  0
   11.5194  -17.3537    0.0000 C   0  0  0  0  0  0  0  0  0  0  0  0
   13.5909  -16.9113    0.0000 C   0  0  0  0  0  0  0  0  0  0  0  0
   15.3208  -15.6502    0.0000 N   0  0  0  0  0  0  0  0  0  0  0  0
   15.9421   -9.6873    0.0000 N   0  0  0  0  0  0  0  0  0  0  0  0
   16.9011  -17.0813    0.0000 C   0  0  0  0  0  0  0  0  0  0  0  0
   16.4670  -19.1676    0.0000 C   0  0  0  0  0  0  0  0  0  0  0  0
   17.7857   -8.6229    0.0000 C   0  0  0  0  0  0  0  0  0  0  0  0
   19.6302   -9.6885    0.0000 C   0  0  0  0  0  0  0  0  0  0  0  0
   10.4602   -7.2314    0.0000 O   0  0  0  0  0  0  0  0  0  0  0  0
    7.7112  -15.6687    0.0000 C   0  0  0  0  0  0  0  0  0  0  0  0
    6.6469  -13.8252    0.0000 C   0  0  0  0  0  0  0  0  0  0  0  0
    9.4259  -16.9071    0.0000 O   0  0  0  0  0  0  0  0  0  0  0  0
    6.4243  -11.7081    0.0000 O   0  0  0  0  0  0  0  0  0  0  0  0
   13.0193   -5.1642    0.0000 O   0  0  0  0  0  0  0  0  0  0  0  0
   11.5200  -19.4839    0.0000 O   0  0  0  0  0  0  0  0  0  0  0  0
   14.4329  -19.8176    0.0000 O   0  0  0  0  0  0  0  0  0  0  0  0
   18.0397  -20.5865    0.0000 O   0  0  0  0  0  0  0  0  0  0  0  0
   19.6235  -11.8062    0.0000 O   0  0  0  0  0  0  0  0  0  0  0  0
   21.4737   -8.6241    0.0000 O   0  0  0  0  0  0  0  0  0  0  0  0
  1  2  1  0
  3  4  1  0
  5  6  1  0
  7  8  1  0
  8  9  1  0
  5  9  1  0
  6 10  1  0
  4 10  1  0
  9 11  1  0
 11 12  1  0
 10 13  1  0
 13 14  1  0
  3 15  1  0
  2 15  1  0
 16 17  1  0
 16 18  1  0
  7 18  1  0
 17 19  1  0
  1 19  1  0
  3 20  2  0
  7 21  2  0
 12 22  1  0
 12 23  2  0
 14 24  2  0
 14 25  1  0
M  END
>  <Name>  (215) 
K2-A2-15C5-2

>  <logK_Dy_z=3.0_T=25_I=1.0>  (215) 
8.73

$$$$

     RDKit          2D

 28 28  0  0  0  0  0  0  0  0999 V2000
   13.2252  -18.6816    0.0000 C   0  0  0  0  0  0  0  0  0  0  0  0
   11.5017  -18.6869    0.0000 C   0  0  0  0  0  0  0  0  0  0  0  0
    7.6818  -15.4811    0.0000 C   0  0  0  0  0  0  0  0  0  0  0  0
    8.5494  -16.9824    0.0000 C   0  0  0  0  0  0  0  0  0  0  0  0
    8.5468  -10.5632    0.0000 C   0  0  0  0  0  0  0  0  0  0  0  0
    7.6800  -12.0645    0.0000 C   0  0  0  0  0  0  0  0  0  0  0  0
   17.0521  -15.4737    0.0000 C   0  0  0  0  0  0  0  0  0  0  0  0
   16.1853  -16.9751    0.0000 C   0  0  0  0  0  0  0  0  0  0  0  0
   13.2344   -8.8676    0.0000 C   0  0  0  0  0  0  0  0  0  0  0  0
   11.5005   -8.8669    0.0000 C   0  0  0  0  0  0  0  0  0  0  0  0
   16.1867  -10.5721    0.0000 C   0  0  0  0  0  0  0  0  0  0  0  0
   17.0439  -12.0674    0.0000 C   0  0  0  0  0  0  0  0  0  0  0  0
   14.8557   -9.4568    0.0000 N   0  0  0  0  0  0  0  0  0  0  0  0
   17.3402  -13.7731    0.0000 N   0  0  0  0  0  0  0  0  0  0  0  0
    9.8654   -9.4575    0.0000 O   0  0  0  0  0  0  0  0  0  0  0  0
    7.3757  -13.7698    0.0000 O   0  0  0  0  0  0  0  0  0  0  0  0
    9.8701  -18.0922    0.0000 O   0  0  0  0  0  0  0  0  0  0  0  0
   14.8505  -18.0854    0.0000 O   0  0  0  0  0  0  0  0  0  0  0  0
   17.5058  -18.0843    0.0000 O   0  0  0  0  0  0  0  0  0  0  0  0
   11.1942   -7.1560    0.0000 O   0  0  0  0  0  0  0  0  0  0  0  0
   19.0744  -13.7734    0.0000 C   0  0  0  0  0  0  0  0  0  0  0  0
   19.9418  -15.2751    0.0000 C   0  0  0  0  0  0  0  0  0  0  0  0
   15.7225   -7.9555    0.0000 C   0  0  0  0  0  0  0  0  0  0  0  0
   17.4565   -7.9563    0.0000 C   0  0  0  0  0  0  0  0  0  0  0  0
   18.3140   -9.4517    0.0000 O   0  0  0  0  0  0  0  0  0  0  0  0
   18.3232   -6.4550    0.0000 O   0  0  0  0  0  0  0  0  0  0  0  0
   19.0812  -16.7655    0.0000 O   0  0  0  0  0  0  0  0  0  0  0  0
   21.6759  -15.2754    0.0000 O   0  0  0  0  0  0  0  0  0  0  0  0
  1  2  1  0
  3  4  1  0
  5  6  1  0
  7  8  1  0
  9 10  1  0
 11 12  1  0
 11 13  1  0
  9 13  1  0
 12 14  1  0
  7 14  1  0
 10 15  1  0
  5 15  1  0
  6 16  1  0
  3 16  1  0
  4 17  1  0
  2 17  1  0
  1 18  1  0
  8 18  1  0
  8 19  2  0
 10 20  2  0
 14 21  1  0
 21 22  1  0
 13 23  1  0
 23 24  1  0
 24 25  1  0
 24 26  2  0
 22 27  1  0
 22 28  2  0
M  END
>  <Name>  (216) 
K2-A2-18C6-3

>  <logK_Dy_z=3.0_T=25_I=1.0>  (216) 
9.31

$$$$

     RDKit          2D

 28 28  0  0  0  0  0  0  0  0999 V2000
   12.7316  -16.6173    0.0000 C   0  0  0  0  0  0  0  0  0  0  0  0
   11.0413  -17.5937    0.0000 C   0  0  0  0  0  0  0  0  0  0  0  0
   10.8176  -14.3409    0.0000 C   0  0  0  0  0  0  0  0  0  0  0  0
    9.1277  -13.3653    0.0000 C   0  0  0  0  0  0  0  0  0  0  0  0
    7.8791  -14.8517    0.0000 O   0  0  0  0  0  0  0  0  0  0  0  0
    7.8779  -11.8628    0.0000 O   0  0  0  0  0  0  0  0  0  0  0  0
   16.3451   -4.7670    0.0000 C   0  0  0  0  0  0  0  0  0  0  0  0
   14.6552   -3.7913    0.0000 C   0  0  0  0  0  0  0  0  0  0  0  0
   19.2804  -12.8443    0.0000 C   0  0  0  0  0  0  0  0  0  0  0  0
   19.2796  -14.7961    0.0000 C   0  0  0  0  0  0  0  0  0  0  0  0
   18.2537  -10.0436    0.0000 C   0  0  0  0  0  0  0  0  0  0  0  0
   18.2545   -8.0918    0.0000 C   0  0  0  0  0  0  0  0  0  0  0  0
   14.6520  -14.3317    0.0000 C   0  0  0  0  0  0  0  0  0  0  0  0
   16.3351  -13.3668    0.0000 C   0  0  0  0  0  0  0  0  0  0  0  0
   17.5905  -11.8686    0.0000 N   0  0  0  0  0  0  0  0  0  0  0  0
   17.5963  -15.7614    0.0000 O   0  0  0  0  0  0  0  0  0  0  0  0
   20.9695  -15.7718    0.0000 O   0  0  0  0  0  0  0  0  0  0  0  0
   20.1804   -7.7471    0.0000 O   0  0  0  0  0  0  0  0  0  0  0  0
   17.5897   -6.2514    0.0000 O   0  0  0  0  0  0  0  0  0  0  0  0
   12.7357   -3.4489    0.0000 O   0  0  0  0  0  0  0  0  0  0  0  0
   12.7320  -14.6653    0.0000 N   0  0  0  0  0  0  0  0  0  0  0  0
    9.3635  -16.6250    0.0000 O   0  0  0  0  0  0  0  0  0  0  0  0
   11.0409  -19.5457    0.0000 O   0  0  0  0  0  0  0  0  0  0  0  0
    7.2068  -10.0332    0.0000 C   0  0  0  0  0  0  0  0  0  0  0  0
   10.8094   -3.7934    0.0000 C   0  0  0  0  0  0  0  0  0  0  0  0
    7.2008   -8.0932    0.0000 O   0  0  0  0  0  0  0  0  0  0  0  0
    9.1195   -4.7700    0.0000 O   0  0  0  0  0  0  0  0  0  0  0  0
    7.8702   -6.2566    0.0000 C   0  0  0  0  0  0  0  0  0  0  0  0
  1  2  1  0
  3  4  1  0
  4  5  2  0
  4  6  1  0
  7  8  1  0
  9 10  1  0
 11 12  1  0
 13 14  1  0
 14 15  1  0
 11 15  1  0
  9 15  1  0
 10 16  1  0
 10 17  2  0
 12 18  2  0
 12 19  1  0
  7 19  1  0
  8 20  1  0
 13 21  1  0
  3 21  1  0
  1 21  1  0
  2 22  1  0
  2 23  2  0
  6 24  1  0
 20 25  1  0
 24 26  1  0
 25 27  1  0
 26 28  1  0
 27 28  1  0
M  END
>  <Name>  (217) 
K2-A2-21C7-1

>  <logK_Dy_z=3.0_T=25_I=1.0>  (217) 
9.49

$$$$

     RDKit          2D

 29 31  0  0  0  0  0  0  0  0999 V2000
   13.9980  -12.5425    0.0000 N   0  0  0  0  0  0  0  0  0  0  0  0
   15.4172  -12.5947    0.0000 C   0  0  0  0  0  0  0  0  0  0  0  0
   16.3155  -11.5648    0.0000 C   0  0  0  0  0  0  0  0  0  0  0  0
   17.7105  -11.4707    0.0000 N   0  0  0  0  0  0  0  0  0  0  0  0
   18.4024  -12.7231    0.0000 C   0  0  0  0  0  0  0  0  0  0  0  0
   17.7821  -13.9985    0.0000 C   0  0  0  0  0  0  0  0  0  0  0  0
   18.3730  -10.1947    0.0000 C   0  0  0  0  0  0  0  0  0  0  0  0
   13.2833  -11.2993    0.0000 C   0  0  0  0  0  0  0  0  0  0  0  0
   13.3134  -13.8112    0.0000 C   0  0  0  0  0  0  0  0  0  0  0  0
   19.8025  -10.1111    0.0000 C   0  0  0  0  0  0  0  0  0  0  0  0
   20.5363  -11.3492    0.0000 C   0  0  0  0  0  0  0  0  0  0  0  0
   20.5177   -8.8723    0.0000 N   0  0  0  0  0  0  0  0  0  0  0  0
   21.9672  -11.3474    0.0000 C   0  0  0  0  0  0  0  0  0  0  0  0
   21.9526   -8.8634    0.0000 C   0  0  0  0  0  0  0  0  0  0  0  0
   22.6801  -10.0998    0.0000 C   0  0  0  0  0  0  0  0  0  0  0  0
   13.9540  -10.0334    0.0000 C   0  0  0  0  0  0  0  0  0  0  0  0
   13.2693   -8.7663    0.0000 N   0  0  0  0  0  0  0  0  0  0  0  0
   15.3560   -9.9414    0.0000 C   0  0  0  0  0  0  0  0  0  0  0  0
   14.0035   -7.5391    0.0000 C   0  0  0  0  0  0  0  0  0  0  0  0
   16.1372   -8.7601    0.0000 C   0  0  0  0  0  0  0  0  0  0  0  0
   15.4328   -7.4932    0.0000 C   0  0  0  0  0  0  0  0  0  0  0  0
   11.8816  -13.8496    0.0000 C   0  0  0  0  0  0  0  0  0  0  0  0
   11.1697  -15.0944    0.0000 C   0  0  0  0  0  0  0  0  0  0  0  0
   11.1590  -12.6085    0.0000 N   0  0  0  0  0  0  0  0  0  0  0  0
    9.7335  -15.0938    0.0000 C   0  0  0  0  0  0  0  0  0  0  0  0
    9.7254  -12.6068    0.0000 C   0  0  0  0  0  0  0  0  0  0  0  0
    9.0128  -13.8539    0.0000 C   0  0  0  0  0  0  0  0  0  0  0  0
   18.7089  -15.1409    0.0000 O   0  0  0  0  0  0  0  0  0  0  0  0
   16.4432  -14.4617    0.0000 O   0  0  0  0  0  0  0  0  0  0  0  0
  1  2  1  0
  2  3  1  0
  3  4  1  0
  4  5  1  0
  5  6  1  0
  4  7  1  0
  1  8  1  0
  1  9  1  0
 11 10  2  0
 12 10  1  0
 13 11  1  0
 14 12  2  0
 15 13  2  0
 15 14  1  0
  7 10  1  0
 17 16  2  0
 18 16  1  0
 19 17  1  0
 20 18  2  0
 21 19  2  0
 21 20  1  0
  8 16  1  0
 23 22  2  0
 24 22  1  0
 25 23  1  0
 26 24  2  0
 27 25  2  0
 27 26  1  0
  9 22  1  0
  6 28  2  0
  6 29  1  0
M  END
>  <Name>  (218) 
L3py

>  <logK_Dy_z=3.0_T=25_I=1.0>  (218) 
8.74

$$$$

     RDKit          2D

 34 35  0  0  0  0  0  0  0  0999 V2000
   12.2823   -8.2808    0.0000 C   0  0  0  0  0  0  0  0  0  0  0  0
   11.6173   -9.4326    0.0000 N   0  0  0  0  0  0  0  0  0  0  0  0
   11.6173   -7.1290    0.0000 C   0  0  0  0  0  0  0  0  0  0  0  0
   10.2873   -9.4326    0.0000 C   0  0  0  0  0  0  0  0  0  0  0  0
   10.2873   -7.1290    0.0000 C   0  0  0  0  0  0  0  0  0  0  0  0
    9.6223   -8.2808    0.0000 C   0  0  0  0  0  0  0  0  0  0  0  0
   13.6123   -8.2808    0.0000 C   0  0  0  0  0  0  0  0  0  0  0  0
   14.2773   -7.1290    0.0000 C   0  0  0  0  0  0  0  0  0  0  0  0
   14.2773   -9.4326    0.0000 N   0  0  0  0  0  0  0  0  0  0  0  0
   15.6073   -7.1290    0.0000 C   0  0  0  0  0  0  0  0  0  0  0  0
   15.6073   -9.4326    0.0000 C   0  0  0  0  0  0  0  0  0  0  0  0
   16.2723   -8.2808    0.0000 C   0  0  0  0  0  0  0  0  0  0  0  0
   16.2723  -10.5844    0.0000 C   0  0  0  0  0  0  0  0  0  0  0  0
    9.6223  -10.5844    0.0000 C   0  0  0  0  0  0  0  0  0  0  0  0
    8.2923  -10.5844    0.0000 N   0  0  0  0  0  0  0  0  0  0  0  0
    7.6273  -11.7362    0.0000 C   0  0  0  0  0  0  0  0  0  0  0  0
    6.2973  -11.7362    0.0000 C   0  0  0  0  0  0  0  0  0  0  0  0
    5.6323  -12.8881    0.0000 C   0  0  0  0  0  0  0  0  0  0  0  0
   15.6073  -11.7362    0.0000 O   0  0  0  0  0  0  0  0  0  0  0  0
   17.6023  -10.5844    0.0000 N   0  0  0  0  0  0  0  0  0  0  0  0
   10.2873  -11.7362    0.0000 O   0  0  0  0  0  0  0  0  0  0  0  0
    4.3023  -12.8880    0.0000 C   0  0  0  0  0  0  0  0  0  0  0  0
    7.6273   -9.4326    0.0000 C   0  0  0  0  0  0  0  0  0  0  0  0
    8.2923   -8.2808    0.0000 C   0  0  0  0  0  0  0  0  0  0  0  0
    7.6273   -7.1290    0.0000 C   0  0  0  0  0  0  0  0  0  0  0  0
    8.2923   -5.9772    0.0000 C   0  0  0  0  0  0  0  0  0  0  0  0
   18.2673   -9.4326    0.0000 C   0  0  0  0  0  0  0  0  0  0  0  0
   18.2673  -11.7362    0.0000 C   0  0  0  0  0  0  0  0  0  0  0  0
   19.5973   -9.4326    0.0000 C   0  0  0  0  0  0  0  0  0  0  0  0
   20.2623   -8.2808    0.0000 C   0  0  0  0  0  0  0  0  0  0  0  0
   21.5923   -8.2808    0.0000 C   0  0  0  0  0  0  0  0  0  0  0  0
   17.6023  -12.8881    0.0000 C   0  0  0  0  0  0  0  0  0  0  0  0
   18.2673  -14.0399    0.0000 C   0  0  0  0  0  0  0  0  0  0  0  0
   17.6023  -15.1917    0.0000 C   0  0  0  0  0  0  0  0  0  0  0  0
  2  1  2  0
  3  1  1  0
  4  2  1  0
  5  3  2  0
  6  4  2  0
  6  5  1  0
  8  7  2  0
  9  7  1  0
 10  8  1  0
 11  9  2  0
 12 10  2  0
 12 11  1  0
  1  7  1  0
 11 13  1  0
  4 14  1  0
 14 15  1  0
 15 16  1  0
 16 17  1  0
 17 18  1  0
 13 19  2  0
 13 20  1  0
 14 21  2  0
 18 22  1  0
 15 23  1  0
 23 24  1  0
 24 25  1  0
 25 26  1  0
 20 27  1  0
 20 28  1  0
 27 29  1  0
 29 30  1  0
 30 31  1  0
 28 32  1  0
 32 33  1  0
 33 34  1  0
M  END
>  <Name>  (219) 
LBu2

>  <logK_Dy_z=3.0_T=25_I=1.0>  (219) 
5.1

$$$$

     RDKit          2D

  6  5  0  0  1  0  0  0  0  0999 V2000
    8.8033   -5.1220    0.0000 C   0  0  0  0  0  0  0  0  0  0  0  0
   10.6886   -8.3876    0.0000 C   0  0  0  0  0  0  0  0  0  0  0  0
   14.4051   -8.3896    0.0000 C   0  0  0  0  0  0  0  0  0  0  0  0
    8.7886  -11.6323    0.0000 O   0  0  0  0  0  0  0  0  0  0  0  0
   16.2905  -11.6552    0.0000 O   0  0  0  0  0  0  0  0  0  0  0  0
   16.3052   -5.1449    0.0000 O   0  0  0  0  0  0  0  0  0  0  0  0
  2  1  1  1
  2  3  1  0
  2  4  1  0
  3  5  1  0
  3  6  2  0
M  END
>  <Name>  (220) 
L-Lactic

>  <logK_Dy_z=3.0_T=25_I=1.0>  (220) 
3.09

$$$$

     RDKit          2D

 50 51  0  0  0  0  0  0  0  0999 V2000
   14.6378  -10.6684    0.0000 C   0  0  0  0  0  0  0  0  0  0  0  0
   13.9728  -11.8202    0.0000 N   0  0  0  0  0  0  0  0  0  0  0  0
   13.9728   -9.5166    0.0000 C   0  0  0  0  0  0  0  0  0  0  0  0
   12.6428  -11.8202    0.0000 C   0  0  0  0  0  0  0  0  0  0  0  0
   12.6428   -9.5166    0.0000 C   0  0  0  0  0  0  0  0  0  0  0  0
   11.9778  -10.6684    0.0000 C   0  0  0  0  0  0  0  0  0  0  0  0
   15.9678  -10.6684    0.0000 C   0  0  0  0  0  0  0  0  0  0  0  0
   16.6329   -9.5166    0.0000 C   0  0  0  0  0  0  0  0  0  0  0  0
   16.6329  -11.8202    0.0000 N   0  0  0  0  0  0  0  0  0  0  0  0
   17.9629   -9.5166    0.0000 C   0  0  0  0  0  0  0  0  0  0  0  0
   17.9629  -11.8202    0.0000 C   0  0  0  0  0  0  0  0  0  0  0  0
   18.6278  -10.6684    0.0000 C   0  0  0  0  0  0  0  0  0  0  0  0
   18.6279  -12.9720    0.0000 C   0  0  0  0  0  0  0  0  0  0  0  0
   11.9778  -12.9720    0.0000 C   0  0  0  0  0  0  0  0  0  0  0  0
   10.6479  -12.9720    0.0000 N   0  0  0  0  0  0  0  0  0  0  0  0
    9.9829  -14.1238    0.0000 C   0  0  0  0  0  0  0  0  0  0  0  0
    8.6529  -14.1238    0.0000 C   0  0  0  0  0  0  0  0  0  0  0  0
    7.9878  -15.2756    0.0000 C   0  0  0  0  0  0  0  0  0  0  0  0
   17.9629  -14.1238    0.0000 O   0  0  0  0  0  0  0  0  0  0  0  0
   19.9579  -12.9720    0.0000 N   0  0  0  0  0  0  0  0  0  0  0  0
   12.6428  -14.1238    0.0000 O   0  0  0  0  0  0  0  0  0  0  0  0
    6.6578  -15.2756    0.0000 C   0  0  0  0  0  0  0  0  0  0  0  0
    9.9829  -11.8202    0.0000 C   0  0  0  0  0  0  0  0  0  0  0  0
   10.6479  -10.6684    0.0000 C   0  0  0  0  0  0  0  0  0  0  0  0
    9.9829   -9.5166    0.0000 C   0  0  0  0  0  0  0  0  0  0  0  0
   10.6478   -8.3648    0.0000 C   0  0  0  0  0  0  0  0  0  0  0  0
   20.6229  -11.8202    0.0000 C   0  0  0  0  0  0  0  0  0  0  0  0
   20.6229  -14.1238    0.0000 C   0  0  0  0  0  0  0  0  0  0  0  0
   21.9529  -11.8202    0.0000 C   0  0  0  0  0  0  0  0  0  0  0  0
   22.6179  -10.6684    0.0000 C   0  0  0  0  0  0  0  0  0  0  0  0
   23.9479  -10.6684    0.0000 C   0  0  0  0  0  0  0  0  0  0  0  0
   19.9579  -15.2756    0.0000 C   0  0  0  0  0  0  0  0  0  0  0  0
   20.6229  -16.4275    0.0000 C   0  0  0  0  0  0  0  0  0  0  0  0
   19.9579  -17.5793    0.0000 C   0  0  0  0  0  0  0  0  0  0  0  0
    9.9829   -7.2129    0.0000 C   0  0  0  0  0  0  0  0  0  0  0  0
   10.6479   -6.0611    0.0000 C   0  0  0  0  0  0  0  0  0  0  0  0
    9.9829   -4.9093    0.0000 C   0  0  0  0  0  0  0  0  0  0  0  0
   10.6479   -3.7575    0.0000 C   0  0  0  0  0  0  0  0  0  0  0  0
    5.9928  -16.4275    0.0000 C   0  0  0  0  0  0  0  0  0  0  0  0
    4.6628  -16.4274    0.0000 C   0  0  0  0  0  0  0  0  0  0  0  0
    3.9978  -17.5793    0.0000 C   0  0  0  0  0  0  0  0  0  0  0  0
    2.6678  -17.5792    0.0000 C   0  0  0  0  0  0  0  0  0  0  0  0
   24.6129   -9.5166    0.0000 C   0  0  0  0  0  0  0  0  0  0  0  0
   25.9429   -9.5166    0.0000 C   0  0  0  0  0  0  0  0  0  0  0  0
   26.6079   -8.3648    0.0000 C   0  0  0  0  0  0  0  0  0  0  0  0
   27.9379   -8.3648    0.0000 C   0  0  0  0  0  0  0  0  0  0  0  0
   20.6228  -18.7311    0.0000 C   0  0  0  0  0  0  0  0  0  0  0  0
   19.9578  -19.8829    0.0000 C   0  0  0  0  0  0  0  0  0  0  0  0
   20.6228  -21.0347    0.0000 C   0  0  0  0  0  0  0  0  0  0  0  0
   19.9578  -22.1865    0.0000 C   0  0  0  0  0  0  0  0  0  0  0  0
  2  1  2  0
  3  1  1  0
  4  2  1  0
  5  3  2  0
  6  4  2  0
  6  5  1  0
  8  7  2  0
  9  7  1  0
 10  8  1  0
 11  9  2  0
 12 10  2  0
 12 11  1  0
  1  7  1  0
 11 13  1  0
  4 14  1  0
 14 15  1  0
 15 16  1  0
 16 17  1  0
 17 18  1  0
 13 19  2  0
 13 20  1  0
 14 21  2  0
 18 22  1  0
 15 23  1  0
 23 24  1  0
 24 25  1  0
 25 26  1  0
 20 27  1  0
 20 28  1  0
 27 29  1  0
 29 30  1  0
 30 31  1  0
 28 32  1  0
 32 33  1  0
 33 34  1  0
 26 35  1  0
 35 36  1  0
 36 37  1  0
 37 38  1  0
 22 39  1  0
 39 40  1  0
 40 41  1  0
 41 42  1  0
 31 43  1  0
 43 44  1  0
 44 45  1  0
 45 46  1  0
 34 47  1  0
 47 48  1  0
 48 49  1  0
 49 50  1  0
M  END
>  <Name>  (221) 
LOct2

>  <logK_Dy_z=3.0_T=25_I=1.0>  (221) 
6.3

$$$$

     RDKit          2D

 34 37  0  0  0  0  0  0  0  0999 V2000
   13.8366  -10.5082    0.0000 C   0  0  0  0  0  0  0  0  0  0  0  0
   13.1716  -11.6600    0.0000 N   0  0  0  0  0  0  0  0  0  0  0  0
   13.1716   -9.3564    0.0000 C   0  0  0  0  0  0  0  0  0  0  0  0
   11.8416  -11.6600    0.0000 C   0  0  0  0  0  0  0  0  0  0  0  0
   11.8416   -9.3564    0.0000 C   0  0  0  0  0  0  0  0  0  0  0  0
   11.1766  -10.5082    0.0000 C   0  0  0  0  0  0  0  0  0  0  0  0
   15.1666  -10.5082    0.0000 C   0  0  0  0  0  0  0  0  0  0  0  0
   15.8316   -9.3564    0.0000 C   0  0  0  0  0  0  0  0  0  0  0  0
   15.8316  -11.6600    0.0000 N   0  0  0  0  0  0  0  0  0  0  0  0
   17.1616   -9.3564    0.0000 C   0  0  0  0  0  0  0  0  0  0  0  0
   17.1616  -11.6600    0.0000 C   0  0  0  0  0  0  0  0  0  0  0  0
   17.8266  -10.5082    0.0000 C   0  0  0  0  0  0  0  0  0  0  0  0
   17.8266  -12.8118    0.0000 C   0  0  0  0  0  0  0  0  0  0  0  0
   11.1766  -12.8118    0.0000 C   0  0  0  0  0  0  0  0  0  0  0  0
    9.8466  -12.8118    0.0000 N   0  0  0  0  0  0  0  0  0  0  0  0
   17.1616  -13.9636    0.0000 O   0  0  0  0  0  0  0  0  0  0  0  0
   19.1566  -12.8118    0.0000 N   0  0  0  0  0  0  0  0  0  0  0  0
   11.8416  -13.9636    0.0000 O   0  0  0  0  0  0  0  0  0  0  0  0
    9.1816  -11.6600    0.0000 C   0  0  0  0  0  0  0  0  0  0  0  0
   19.8216  -11.6600    0.0000 C   0  0  0  0  0  0  0  0  0  0  0  0
    9.8466  -10.5082    0.0000 C   0  0  0  0  0  0  0  0  0  0  0  0
   21.1516  -11.6600    0.0000 C   0  0  0  0  0  0  0  0  0  0  0  0
   19.8216  -13.9636    0.0000 C   0  0  0  0  0  0  0  0  0  0  0  0
   21.1516  -13.9636    0.0000 C   0  0  0  0  0  0  0  0  0  0  0  0
   19.1566  -15.1154    0.0000 C   0  0  0  0  0  0  0  0  0  0  0  0
   21.8166  -15.1154    0.0000 C   0  0  0  0  0  0  0  0  0  0  0  0
   19.8216  -16.2673    0.0000 C   0  0  0  0  0  0  0  0  0  0  0  0
   21.1516  -16.2673    0.0000 C   0  0  0  0  0  0  0  0  0  0  0  0
    9.1816  -13.9636    0.0000 C   0  0  0  0  0  0  0  0  0  0  0  0
    9.8466  -15.1154    0.0000 C   0  0  0  0  0  0  0  0  0  0  0  0
    7.8516  -13.9636    0.0000 C   0  0  0  0  0  0  0  0  0  0  0  0
    9.1816  -16.2673    0.0000 C   0  0  0  0  0  0  0  0  0  0  0  0
    7.1866  -15.1154    0.0000 C   0  0  0  0  0  0  0  0  0  0  0  0
    7.8516  -16.2673    0.0000 C   0  0  0  0  0  0  0  0  0  0  0  0
  2  1  2  0
  3  1  1  0
  4  2  1  0
  5  3  2  0
  6  4  2  0
  6  5  1  0
  8  7  2  0
  9  7  1  0
 10  8  1  0
 11  9  2  0
 12 10  2  0
 12 11  1  0
  1  7  1  0
 11 13  1  0
  4 14  1  0
 14 15  1  0
 13 16  2  0
 13 17  1  0
 14 18  2  0
 15 19  1  0
 17 20  1  0
 19 21  1  0
 20 22  1  0
 24 23  2  0
 25 23  1  0
 26 24  1  0
 27 25  2  0
 28 26  2  0
 28 27  1  0
 17 23  1  0
 30 29  2  0
 31 29  1  0
 32 30  1  0
 33 31  2  0
 34 32  2  0
 34 33  1  0
 15 29  1  0
M  END
>  <Name>  (222) 
LPh

>  <logK_Dy_z=3.0_T=25_I=1.0>  (222) 
5.7

$$$$

     RDKit          2D

 26 27  0  0  0  0  0  0  0  0999 V2000
   10.8563  -11.5329    0.0000 N   0  0  0  0  0  0  0  0  0  0  0  0
   12.2898  -11.5329    0.0000 C   0  0  0  0  0  0  0  0  0  0  0  0
   13.0066  -10.2915    0.0000 C   0  0  0  0  0  0  0  0  0  0  0  0
   14.4401  -10.2915    0.0000 N   0  0  0  0  0  0  0  0  0  0  0  0
   15.1568  -11.5329    0.0000 C   0  0  0  0  0  0  0  0  0  0  0  0
   14.4401  -12.7744    0.0000 C   0  0  0  0  0  0  0  0  0  0  0  0
   15.1568   -9.0500    0.0000 C   0  0  0  0  0  0  0  0  0  0  0  0
   10.1395  -10.2915    0.0000 C   0  0  0  0  0  0  0  0  0  0  0  0
   10.1395  -12.7744    0.0000 C   0  0  0  0  0  0  0  0  0  0  0  0
   16.5904   -9.0500    0.0000 C   0  0  0  0  0  0  0  0  0  0  0  0
   10.8563   -9.0500    0.0000 C   0  0  0  0  0  0  0  0  0  0  0  0
   10.1395   -7.8086    0.0000 N   0  0  0  0  0  0  0  0  0  0  0  0
   12.2898   -9.0500    0.0000 C   0  0  0  0  0  0  0  0  0  0  0  0
   10.8563   -6.5671    0.0000 C   0  0  0  0  0  0  0  0  0  0  0  0
   13.0066   -7.8086    0.0000 C   0  0  0  0  0  0  0  0  0  0  0  0
   12.2898   -6.5671    0.0000 C   0  0  0  0  0  0  0  0  0  0  0  0
    8.7060  -12.7744    0.0000 C   0  0  0  0  0  0  0  0  0  0  0  0
    7.9893  -14.0159    0.0000 C   0  0  0  0  0  0  0  0  0  0  0  0
    7.9893  -11.5329    0.0000 N   0  0  0  0  0  0  0  0  0  0  0  0
    6.5557  -14.0159    0.0000 C   0  0  0  0  0  0  0  0  0  0  0  0
    6.5557  -11.5329    0.0000 C   0  0  0  0  0  0  0  0  0  0  0  0
    5.8390  -12.7744    0.0000 C   0  0  0  0  0  0  0  0  0  0  0  0
   15.1568  -14.0159    0.0000 O   0  0  0  0  0  0  0  0  0  0  0  0
   13.0066  -12.7744    0.0000 O   0  0  0  0  0  0  0  0  0  0  0  0
   17.3071   -7.8086    0.0000 O   0  0  0  0  0  0  0  0  0  0  0  0
   17.3071  -10.2915    0.0000 O   0  0  0  0  0  0  0  0  0  0  0  0
  1  2  1  0
  2  3  1  0
  3  4  1  0
  4  5  1  0
  5  6  1  0
  4  7  1  0
  1  8  1  0
  1  9  1  0
  7 10  1  0
 12 11  2  0
 13 11  1  0
 14 12  1  0
 15 13  2  0
 16 14  2  0
 16 15  1  0
  8 11  1  0
 18 17  2  0
 19 17  1  0
 20 18  1  0
 21 19  2  0
 22 20  2  0
 22 21  1  0
  9 17  1  0
  6 23  2  0
  6 24  1  0
 10 25  2  0
 10 26  1  0
M  END
>  <Name>  (223) 
Lpy

>  <logK_Dy_z=3.0_T=25_I=1.0>  (223) 
11.89

$$$$

     RDKit          2D

 26 27  0  0  0  0  0  0  0  0999 V2000
   14.8303  -11.5650    0.0000 N   0  0  0  0  0  0  0  0  0  0  0  0
   16.2638  -11.5650    0.0000 C   0  0  0  0  0  0  0  0  0  0  0  0
   16.9805  -10.3235    0.0000 C   0  0  0  0  0  0  0  0  0  0  0  0
   18.4141  -10.3235    0.0000 N   0  0  0  0  0  0  0  0  0  0  0  0
   19.1308  -11.5650    0.0000 C   0  0  0  0  0  0  0  0  0  0  0  0
   18.4141  -12.8065    0.0000 C   0  0  0  0  0  0  0  0  0  0  0  0
   19.1308   -9.0821    0.0000 C   0  0  0  0  0  0  0  0  0  0  0  0
   14.1135  -10.3235    0.0000 C   0  0  0  0  0  0  0  0  0  0  0  0
   14.1135  -12.8065    0.0000 C   0  0  0  0  0  0  0  0  0  0  0  0
   20.5643   -9.0821    0.0000 C   0  0  0  0  0  0  0  0  0  0  0  0
   14.8303   -9.0821    0.0000 C   0  0  0  0  0  0  0  0  0  0  0  0
   14.1135   -7.8406    0.0000 N   0  0  0  0  0  0  0  0  0  0  0  0
   16.2638   -9.0821    0.0000 C   0  0  0  0  0  0  0  0  0  0  0  0
   14.8303   -6.5992    0.0000 C   0  0  0  0  0  0  0  0  0  0  0  0
   16.9805   -7.8406    0.0000 N   0  0  0  0  0  0  0  0  0  0  0  0
   16.2638   -6.5992    0.0000 C   0  0  0  0  0  0  0  0  0  0  0  0
   12.6800  -12.8065    0.0000 C   0  0  0  0  0  0  0  0  0  0  0  0
   11.9632  -14.0479    0.0000 C   0  0  0  0  0  0  0  0  0  0  0  0
   11.9632  -11.5650    0.0000 N   0  0  0  0  0  0  0  0  0  0  0  0
   10.5297  -14.0479    0.0000 N   0  0  0  0  0  0  0  0  0  0  0  0
   10.5297  -11.5650    0.0000 C   0  0  0  0  0  0  0  0  0  0  0  0
    9.8130  -12.8065    0.0000 C   0  0  0  0  0  0  0  0  0  0  0  0
   19.1308  -14.0479    0.0000 O   0  0  0  0  0  0  0  0  0  0  0  0
   16.9805  -12.8065    0.0000 O   0  0  0  0  0  0  0  0  0  0  0  0
   21.2811   -7.8406    0.0000 O   0  0  0  0  0  0  0  0  0  0  0  0
   21.2811  -10.3235    0.0000 O   0  0  0  0  0  0  0  0  0  0  0  0
  1  2  1  0
  2  3  1  0
  3  4  1  0
  4  5  1  0
  5  6  1  0
  4  7  1  0
  1  8  1  0
  1  9  1  0
  7 10  1  0
 12 11  2  0
 13 11  1  0
 14 12  1  0
 15 13  2  0
 16 14  2  0
 16 15  1  0
  8 11  1  0
 18 17  2  0
 19 17  1  0
 20 18  1  0
 21 19  2  0
 22 20  2  0
 22 21  1  0
  9 17  1  0
  6 23  2  0
  6 24  1  0
 10 25  2  0
 10 26  1  0
M  END
>  <Name>  (224) 
Lpz

>  <logK_Dy_z=3.0_T=25_I=1.0>  (224) 
9.6

$$$$

     RDKit          2D

  9  8  0  0  0  0  0  0  0  0999 V2000
    8.8045   -8.8614    0.0000 C   0  0  0  0  0  0  0  0  0  0  0  0
   11.2193   -7.4672    0.0000 C   0  0  0  0  0  0  0  0  0  0  0  0
   13.6341   -8.8614    0.0000 C   0  0  0  0  0  0  0  0  0  0  0  0
   16.0489   -7.4672    0.0000 C   0  0  0  0  0  0  0  0  0  0  0  0
   16.0489   -4.6788    0.0000 O   0  0  0  0  0  0  0  0  0  0  0  0
   18.4637   -8.8614    0.0000 O   0  0  0  0  0  0  0  0  0  0  0  0
   13.6341  -11.6497    0.0000 O   0  0  0  0  0  0  0  0  0  0  0  0
    8.8045  -11.6497    0.0000 O   0  0  0  0  0  0  0  0  0  0  0  0
    6.3897   -7.4672    0.0000 O   0  0  0  0  0  0  0  0  0  0  0  0
  1  2  1  0
  2  3  1  0
  3  4  1  0
  4  5  2  0
  4  6  1  0
  3  7  1  0
  1  8  2  0
  1  9  1  0
M  END
>  <Name>  (225) 
Malic

>  <logK_Dy_z=3.0_T=25_I=1.0>  (225) 
4.78

$$$$

     RDKit          2D

  9  8  0  0  0  0  0  0  0  0999 V2000
    9.0686  -10.2867    0.0000 C   0  0  0  0  0  0  0  0  0  0  0  0
   11.4806   -8.8941    0.0000 S   0  0  0  0  0  0  0  0  0  0  0  0
   13.8925  -10.2867    0.0000 C   0  0  0  0  0  0  0  0  0  0  0  0
   16.3045   -8.8941    0.0000 C   0  0  0  0  0  0  0  0  0  0  0  0
   18.7165  -10.2867    0.0000 C   0  0  0  0  0  0  0  0  0  0  0  0
   21.1285   -8.8941    0.0000 C   0  0  0  0  0  0  0  0  0  0  0  0
   21.1285   -6.1090    0.0000 O   0  0  0  0  0  0  0  0  0  0  0  0
   23.5404  -10.2867    0.0000 O   0  0  0  0  0  0  0  0  0  0  0  0
   18.7165  -13.0718    0.0000 N   0  0  0  0  0  0  0  0  0  0  0  0
  1  2  1  0
  2  3  1  0
  3  4  1  0
  4  5  1  0
  5  6  1  0
  6  7  1  0
  6  8  2  0
  5  9  1  0
M  END
>  <Name>  (226) 
Methionine

>  <logK_Dy_z=3.0_T=25_I=1.0>  (226) 
4.5

$$$$

     RDKit          2D

 20 20  0  0  0  0  0  0  0  0999 V2000
   15.8780   -9.8628    0.0000 C   0  0  0  0  0  0  0  0  0  0  0  0
   15.8780  -11.1928    0.0000 C   0  0  0  0  0  0  0  0  0  0  0  0
   14.7261   -9.1978    0.0000 C   0  0  0  0  0  0  0  0  0  0  0  0
   14.7261  -11.8578    0.0000 C   0  0  0  0  0  0  0  0  0  0  0  0
   13.5743   -9.8628    0.0000 C   0  0  0  0  0  0  0  0  0  0  0  0
   13.5743  -11.1928    0.0000 C   0  0  0  0  0  0  0  0  0  0  0  0
   17.0298  -11.8578    0.0000 C   0  0  0  0  0  0  0  0  0  0  0  0
   12.4225  -11.8578    0.0000 C   0  0  0  0  0  0  0  0  0  0  0  0
   12.4225  -13.1878    0.0000 O   0  0  0  0  0  0  0  0  0  0  0  0
   17.0298  -13.1878    0.0000 O   0  0  0  0  0  0  0  0  0  0  0  0
   18.1816  -11.1928    0.0000 N   0  0  0  0  0  0  0  0  0  0  0  0
   11.2707  -11.1928    0.0000 N   0  0  0  0  0  0  0  0  0  0  0  0
   11.2707   -9.8628    0.0000 C   0  0  0  0  0  0  0  0  0  0  0  0
   10.1189   -9.1978    0.0000 C   0  0  0  0  0  0  0  0  0  0  0  0
   10.1189  -11.8578    0.0000 C   0  0  0  0  0  0  0  0  0  0  0  0
    8.9671  -11.1928    0.0000 C   0  0  0  0  0  0  0  0  0  0  0  0
   18.1816   -9.8628    0.0000 C   0  0  0  0  0  0  0  0  0  0  0  0
   19.3334   -9.1978    0.0000 C   0  0  0  0  0  0  0  0  0  0  0  0
   19.3334  -11.8578    0.0000 C   0  0  0  0  0  0  0  0  0  0  0  0
   20.4852  -11.1928    0.0000 C   0  0  0  0  0  0  0  0  0  0  0  0
  2  1  2  0
  3  1  1  0
  4  2  1  0
  5  3  2  0
  6  4  2  0
  6  5  1  0
  2  7  1  0
  6  8  1  0
  8  9  2  0
  7 10  2  0
  7 11  1  0
  8 12  1  0
 12 13  1  0
 13 14  1  0
 12 15  1  0
 15 16  1  0
 11 17  1  0
 17 18  1  0
 11 19  1  0
 19 20  1  0
M  END
>  <Name>  (227) 
N&N&N'&N'-tetraethylpyridine-2&6-dicarboxamide

>  <logK_Dy_z=3.0_T=25_I=1.0>  (227) 
7.5

$$$$

     RDKit          2D

 20 20  0  0  0  0  0  0  0  0999 V2000
   13.8750  -12.4107    0.0000 C   0  0  0  0  0  0  0  0  0  0  0  0
   13.8750  -13.7407    0.0000 C   0  0  0  0  0  0  0  0  0  0  0  0
   12.7231  -11.7457    0.0000 C   0  0  0  0  0  0  0  0  0  0  0  0
   12.7231  -14.4057    0.0000 N   0  0  0  0  0  0  0  0  0  0  0  0
   11.5713  -12.4107    0.0000 C   0  0  0  0  0  0  0  0  0  0  0  0
   11.5713  -13.7407    0.0000 C   0  0  0  0  0  0  0  0  0  0  0  0
   15.0268  -14.4057    0.0000 C   0  0  0  0  0  0  0  0  0  0  0  0
   15.0267  -15.7357    0.0000 O   0  0  0  0  0  0  0  0  0  0  0  0
   16.1786  -13.7407    0.0000 N   0  0  0  0  0  0  0  0  0  0  0  0
   17.3304  -14.4058    0.0000 C   0  0  0  0  0  0  0  0  0  0  0  0
   16.1786  -12.4107    0.0000 C   0  0  0  0  0  0  0  0  0  0  0  0
   17.3305  -11.7458    0.0000 C   0  0  0  0  0  0  0  0  0  0  0  0
   17.3304  -15.7357    0.0000 C   0  0  0  0  0  0  0  0  0  0  0  0
   10.4195  -14.4057    0.0000 C   0  0  0  0  0  0  0  0  0  0  0  0
    9.2677  -13.7406    0.0000 N   0  0  0  0  0  0  0  0  0  0  0  0
   10.4194  -15.7357    0.0000 O   0  0  0  0  0  0  0  0  0  0  0  0
    9.2677  -12.4106    0.0000 C   0  0  0  0  0  0  0  0  0  0  0  0
    8.1158  -14.4056    0.0000 C   0  0  0  0  0  0  0  0  0  0  0  0
   10.4195  -11.7457    0.0000 C   0  0  0  0  0  0  0  0  0  0  0  0
    6.9640  -13.7406    0.0000 C   0  0  0  0  0  0  0  0  0  0  0  0
  2  1  2  0
  3  1  1  0
  4  2  1  0
  5  3  2  0
  6  4  2  0
  6  5  1  0
  2  7  1  0
  7  8  2  0
  7  9  1  0
  9 10  1  0
  9 11  1  0
 11 12  1  0
 10 13  1  0
  6 14  1  0
 14 15  1  0
 14 16  2  0
 15 17  1  0
 15 18  1  0
 17 19  1  0
 18 20  1  0
M  END
>  <Name>  (228) 
N&N&N'&N'-tetra-ethylpyridine-2&6-dicarboxamide

>  <logK_Dy_z=3.0_T=25_I=1.0>  (228) 
7.5

$$$$

     RDKit          2D

 24 24  0  0  0  0  0  0  0  0999 V2000
   15.3186   -7.4329    0.0000 C   0  0  0  0  0  0  0  0  0  0  0  0
   15.3186   -8.7629    0.0000 C   0  0  0  0  0  0  0  0  0  0  0  0
   14.1668   -6.7679    0.0000 C   0  0  0  0  0  0  0  0  0  0  0  0
   14.1668   -9.4279    0.0000 N   0  0  0  0  0  0  0  0  0  0  0  0
   13.0150   -7.4329    0.0000 C   0  0  0  0  0  0  0  0  0  0  0  0
   13.0150   -8.7629    0.0000 C   0  0  0  0  0  0  0  0  0  0  0  0
   16.4704   -9.4279    0.0000 C   0  0  0  0  0  0  0  0  0  0  0  0
   11.8632   -9.4279    0.0000 C   0  0  0  0  0  0  0  0  0  0  0  0
   17.6222   -8.7629    0.0000 N   0  0  0  0  0  0  0  0  0  0  0  0
   10.7113   -8.7629    0.0000 N   0  0  0  0  0  0  0  0  0  0  0  0
   10.7113   -7.4329    0.0000 C   0  0  0  0  0  0  0  0  0  0  0  0
   11.8632   -6.7679    0.0000 C   0  0  0  0  0  0  0  0  0  0  0  0
    9.5595   -6.7679    0.0000 C   0  0  0  0  0  0  0  0  0  0  0  0
    9.5595   -9.4279    0.0000 C   0  0  0  0  0  0  0  0  0  0  0  0
    8.4077   -8.7629    0.0000 C   0  0  0  0  0  0  0  0  0  0  0  0
    9.5595  -10.7579    0.0000 C   0  0  0  0  0  0  0  0  0  0  0  0
   17.6222   -7.4329    0.0000 C   0  0  0  0  0  0  0  0  0  0  0  0
   18.7740   -6.7679    0.0000 C   0  0  0  0  0  0  0  0  0  0  0  0
   16.4704   -6.7679    0.0000 C   0  0  0  0  0  0  0  0  0  0  0  0
   18.7740   -9.4279    0.0000 C   0  0  0  0  0  0  0  0  0  0  0  0
   18.7740  -10.7579    0.0000 C   0  0  0  0  0  0  0  0  0  0  0  0
   19.9259   -8.7629    0.0000 C   0  0  0  0  0  0  0  0  0  0  0  0
   11.8632  -10.7579    0.0000 O   0  0  0  0  0  0  0  0  0  0  0  0
   16.4704  -10.7579    0.0000 O   0  0  0  0  0  0  0  0  0  0  0  0
  2  1  2  0
  3  1  1  0
  4  2  1  0
  5  3  2  0
  6  4  2  0
  6  5  1  0
  2  7  1  0
  6  8  1  0
  7  9  1  0
  8 10  1  0
 10 11  1  0
 11 12  1  0
 11 13  1  0
 10 14  1  0
 14 15  1  0
 14 16  1  0
  9 17  1  0
 17 18  1  0
 17 19  1  0
  9 20  1  0
 20 21  1  0
 20 22  1  0
  8 23  2  0
  7 24  2  0
M  END
>  <Name>  (229) 
N&N&N'&N'-tetraisopropylpyridine-2&6-dicarboxamide

>  <logK_Dy_z=3.0_T=25_I=1.0>  (229) 
7.7

$$$$

     RDKit          2D

 24 23  0  0  0  0  0  0  0  0999 V2000
   15.3742  -11.3210    0.0000 O   0  0  0  0  0  0  0  0  0  0  0  0
   16.5260  -10.6560    0.0000 C   0  0  0  0  0  0  0  0  0  0  0  0
   17.6778  -11.3210    0.0000 C   0  0  0  0  0  0  0  0  0  0  0  0
   14.2223  -10.6560    0.0000 C   0  0  0  0  0  0  0  0  0  0  0  0
   13.0705  -11.3210    0.0000 C   0  0  0  0  0  0  0  0  0  0  0  0
   18.8296  -10.6560    0.0000 N   0  0  0  0  0  0  0  0  0  0  0  0
   11.9187  -10.6560    0.0000 N   0  0  0  0  0  0  0  0  0  0  0  0
   18.8296   -9.3260    0.0000 C   0  0  0  0  0  0  0  0  0  0  0  0
   19.9814   -8.6610    0.0000 C   0  0  0  0  0  0  0  0  0  0  0  0
   19.9814  -11.3210    0.0000 C   0  0  0  0  0  0  0  0  0  0  0  0
   19.9814  -12.6510    0.0000 C   0  0  0  0  0  0  0  0  0  0  0  0
   11.9187   -9.3260    0.0000 C   0  0  0  0  0  0  0  0  0  0  0  0
   10.7669   -8.6610    0.0000 C   0  0  0  0  0  0  0  0  0  0  0  0
   10.7669   -7.3310    0.0000 C   0  0  0  0  0  0  0  0  0  0  0  0
   10.7669  -11.3210    0.0000 C   0  0  0  0  0  0  0  0  0  0  0  0
    9.6151  -10.6560    0.0000 C   0  0  0  0  0  0  0  0  0  0  0  0
   19.9814   -7.3310    0.0000 O   0  0  0  0  0  0  0  0  0  0  0  0
   21.1332   -9.3260    0.0000 O   0  0  0  0  0  0  0  0  0  0  0  0
   21.1332  -13.3160    0.0000 O   0  0  0  0  0  0  0  0  0  0  0  0
   18.8296  -13.3160    0.0000 O   0  0  0  0  0  0  0  0  0  0  0  0
    9.6151   -9.3260    0.0000 O   0  0  0  0  0  0  0  0  0  0  0  0
    8.4633  -11.3210    0.0000 O   0  0  0  0  0  0  0  0  0  0  0  0
   11.9187   -6.6660    0.0000 O   0  0  0  0  0  0  0  0  0  0  0  0
    9.6151   -6.6660    0.0000 O   0  0  0  0  0  0  0  0  0  0  0  0
  1  2  1  0
  2  3  1  0
  1  4  1  0
  4  5  1  0
  3  6  1  0
  5  7  1  0
  6  8  1  0
  8  9  1  0
  6 10  1  0
 10 11  1  0
  7 12  1  0
 12 13  1  0
 13 14  1  0
  7 15  1  0
 15 16  1  0
  9 17  1  0
  9 18  2  0
 11 19  2  0
 11 20  1  0
 16 21  1  0
 16 22  2  0
 14 23  2  0
 14 24  1  0
M  END
>  <Name>  (230) 
N-(2-Carboxyethyl)oxybis(ethyleneamine)-N&N'&N'-triacetic

>  <logK_Dy_z=3.0_T=25_I=1.0>  (230) 
15.11

$$$$

     RDKit          2D

 17 17  0  0  0  0  0  0  0  0999 V2000
   14.6186   -9.1570    0.0000 C   0  0  0  0  0  0  0  0  0  0  0  0
   15.2735   -7.9962    0.0000 C   0  0  0  0  0  0  0  0  0  0  0  0
   13.2947   -9.1570    0.0000 C   0  0  0  0  0  0  0  0  0  0  0  0
   14.6075   -6.8498    0.0000 C   0  0  0  0  0  0  0  0  0  0  0  0
   12.6215   -8.0099    0.0000 C   0  0  0  0  0  0  0  0  0  0  0  0
   13.2778   -6.8547    0.0000 C   0  0  0  0  0  0  0  0  0  0  0  0
   15.3595  -10.2659    0.0000 C   0  0  0  0  0  0  0  0  0  0  0  0
   16.7026  -10.2763    0.0000 N   0  0  0  0  0  0  0  0  0  0  0  0
   17.3752   -9.1615    0.0000 C   0  0  0  0  0  0  0  0  0  0  0  0
   17.3354  -11.4198    0.0000 C   0  0  0  0  0  0  0  0  0  0  0  0
   18.6150   -8.8407    0.0000 C   0  0  0  0  0  0  0  0  0  0  0  0
   18.5720  -11.7670    0.0000 C   0  0  0  0  0  0  0  0  0  0  0  0
   12.6238  -10.3056    0.0000 O   0  0  0  0  0  0  0  0  0  0  0  0
   18.7508   -7.4761    0.0000 O   0  0  0  0  0  0  0  0  0  0  0  0
   19.8292   -9.3390    0.0000 O   0  0  0  0  0  0  0  0  0  0  0  0
   18.6782  -13.1322    0.0000 O   0  0  0  0  0  0  0  0  0  0  0  0
   19.7927  -11.2941    0.0000 O   0  0  0  0  0  0  0  0  0  0  0  0
  2  1  2  0
  3  1  1  0
  4  2  1  0
  5  3  2  0
  6  4  2  0
  6  5  1  0
  1  7  1  0
  7  8  1  0
  8  9  1  0
  8 10  1  0
  9 11  1  0
 10 12  1  0
  3 13  1  0
 11 14  2  0
 11 15  1  0
 12 16  2  0
 12 17  1  0
M  END
>  <Name>  (231) 
N-(2-Hydroxybenzyl)iminodiacetic

>  <logK_Dy_z=3.0_T=25_I=1.0>  (231) 
13.68

$$$$

     RDKit          2D

 23 22  0  0  0  0  0  0  0  0999 V2000
   13.8389  -13.4961    0.0000 C   0  0  0  0  0  0  0  0  0  0  0  0
   12.2447  -14.4165    0.0000 C   0  0  0  0  0  0  0  0  0  0  0  0
   15.4564  -10.7362    0.0000 C   0  0  0  0  0  0  0  0  0  0  0  0
   15.4554   -8.8815    0.0000 C   0  0  0  0  0  0  0  0  0  0  0  0
   13.8509  -11.6631    0.0000 O   0  0  0  0  0  0  0  0  0  0  0  0
   17.0609   -7.9546    0.0000 N   0  0  0  0  0  0  0  0  0  0  0  0
   12.2453  -16.2714    0.0000 N   0  0  0  0  0  0  0  0  0  0  0  0
   17.0605   -6.1000    0.0000 C   0  0  0  0  0  0  0  0  0  0  0  0
   15.4544   -5.1721    0.0000 C   0  0  0  0  0  0  0  0  0  0  0  0
   18.6670   -8.8825    0.0000 C   0  0  0  0  0  0  0  0  0  0  0  0
   18.6550  -10.7155    0.0000 C   0  0  0  0  0  0  0  0  0  0  0  0
   13.8511  -17.1990    0.0000 C   0  0  0  0  0  0  0  0  0  0  0  0
   13.8517  -19.0539    0.0000 C   0  0  0  0  0  0  0  0  0  0  0  0
   10.6402  -17.1981    0.0000 C   0  0  0  0  0  0  0  0  0  0  0  0
    9.0341  -16.2702    0.0000 C   0  0  0  0  0  0  0  0  0  0  0  0
   13.8489   -6.0990    0.0000 O   0  0  0  0  0  0  0  0  0  0  0  0
   15.4541   -3.3176    0.0000 O   0  0  0  0  0  0  0  0  0  0  0  0
   17.0495  -11.6425    0.0000 O   0  0  0  0  0  0  0  0  0  0  0  0
   20.2611  -11.6435    0.0000 O   0  0  0  0  0  0  0  0  0  0  0  0
   12.2466  -19.9806    0.0000 O   0  0  0  0  0  0  0  0  0  0  0  0
   15.4576  -19.9815    0.0000 O   0  0  0  0  0  0  0  0  0  0  0  0
    9.0461  -14.4371    0.0000 O   0  0  0  0  0  0  0  0  0  0  0  0
    7.4286  -17.1971    0.0000 O   0  0  0  0  0  0  0  0  0  0  0  0
  1  2  1  0
  3  4  1  0
  3  5  1  0
  1  5  1  0
  4  6  1  0
  2  7  1  0
  6  8  1  0
  8  9  1  0
  6 10  1  0
 10 11  1  0
  7 12  1  0
 12 13  1  0
  7 14  1  0
 14 15  1  0
  9 16  1  0
  9 17  2  0
 11 18  1  0
 11 19  2  0
 13 20  1  0
 13 21  2  0
 15 22  1  0
 15 23  2  0
M  END
>  <Name>  (232) 
OBETA

>  <logK_Dy_z=3.0_T=25_I=1.0>  (232) 
18.87

$$$$

     RDKit          2D

  6  5  0  0  0  0  0  0  0  0999 V2000
   11.2810   -7.9880    0.0000 C   0  0  0  0  0  0  0  0  0  0  0  0
   12.6110   -7.9880    0.0000 C   0  0  0  0  0  0  0  0  0  0  0  0
   13.2760   -9.1398    0.0000 O   0  0  0  0  0  0  0  0  0  0  0  0
   13.2760   -6.8362    0.0000 C   0  0  0  0  0  0  0  0  0  0  0  0
   10.6160   -6.8362    0.0000 C   0  0  0  0  0  0  0  0  0  0  0  0
   10.6160   -9.1398    0.0000 O   0  0  0  0  0  0  0  0  0  0  0  0
  1  2  1  0
  2  3  2  0
  2  4  1  0
  1  5  1  0
  1  6  2  0
M  END
>  <Name>  (233) 
Oxalic

>  <logK_Dy_z=3.0_T=25_I=1.0>  (233) 
5.82

$$$$

     RDKit          2D

 18 20  0  0  0  0  0  0  0  0999 V2000
   17.0325   -7.4901    0.0000 C   0  0  0  0  0  0  0  0  0  0  0  0
   16.3676   -8.6419    0.0000 C   0  0  0  0  0  0  0  0  0  0  0  0
   16.3676   -6.3383    0.0000 C   0  0  0  0  0  0  0  0  0  0  0  0
   15.0376   -8.6419    0.0000 C   0  0  0  0  0  0  0  0  0  0  0  0
   15.0376   -6.3383    0.0000 C   0  0  0  0  0  0  0  0  0  0  0  0
   14.3726   -7.4901    0.0000 C   0  0  0  0  0  0  0  0  0  0  0  0
   18.3625   -7.4901    0.0000 C   0  0  0  0  0  0  0  0  0  0  0  0
   19.0275   -8.6419    0.0000 C   0  0  0  0  0  0  0  0  0  0  0  0
   17.0325   -9.7937    0.0000 N   0  0  0  0  0  0  0  0  0  0  0  0
   18.3625   -9.7937    0.0000 C   0  0  0  0  0  0  0  0  0  0  0  0
   14.3726   -9.7937    0.0000 N   0  0  0  0  0  0  0  0  0  0  0  0
   13.0426   -9.7937    0.0000 C   0  0  0  0  0  0  0  0  0  0  0  0
   13.0426   -7.4901    0.0000 C   0  0  0  0  0  0  0  0  0  0  0  0
   12.3776   -8.6419    0.0000 C   0  0  0  0  0  0  0  0  0  0  0  0
   12.3776  -10.9454    0.0000 C   0  0  0  0  0  0  0  0  0  0  0  0
   19.0275  -10.9454    0.0000 C   0  0  0  0  0  0  0  0  0  0  0  0
   13.0426  -12.0972    0.0000 O   0  0  0  0  0  0  0  0  0  0  0  0
   18.3625  -12.0972    0.0000 O   0  0  0  0  0  0  0  0  0  0  0  0
  3  1  2  0
  4  2  2  0
  5  3  1  0
  6  5  2  0
  7  1  1  0
  2  1  1  0
  8  7  2  0
  9  2  1  0
 10  8  1  0
 10  9  2  0
 11  4  1  0
  6  4  1  0
 12 11  2  0
 13  6  1  0
 14 12  1  0
 14 13  2  0
 12 15  1  0
 10 16  1  0
 15 17  1  0
 16 18  1  0
M  END
>  <Name>  (234) 
PDALC

>  <logK_Dy_z=3.0_T=25_I=1.0>  (234) 
6.07

$$$$

     RDKit          2D

 20 22  0  0  0  0  0  0  0  0999 V2000
   23.5554  -11.0314    0.0000 C   0  0  0  0  0  0  0  0  0  0  0  0
   22.8904  -12.1832    0.0000 C   0  0  0  0  0  0  0  0  0  0  0  0
   22.8904   -9.8796    0.0000 C   0  0  0  0  0  0  0  0  0  0  0  0
   21.5604  -12.1832    0.0000 C   0  0  0  0  0  0  0  0  0  0  0  0
   21.5604   -9.8796    0.0000 C   0  0  0  0  0  0  0  0  0  0  0  0
   20.8955  -11.0314    0.0000 C   0  0  0  0  0  0  0  0  0  0  0  0
   24.8854  -11.0314    0.0000 C   0  0  0  0  0  0  0  0  0  0  0  0
   25.5503  -12.1832    0.0000 C   0  0  0  0  0  0  0  0  0  0  0  0
   23.5554  -13.3350    0.0000 N   0  0  0  0  0  0  0  0  0  0  0  0
   24.8854  -13.3350    0.0000 C   0  0  0  0  0  0  0  0  0  0  0  0
   20.8955  -13.3350    0.0000 N   0  0  0  0  0  0  0  0  0  0  0  0
   19.5655  -13.3350    0.0000 C   0  0  0  0  0  0  0  0  0  0  0  0
   19.5655  -11.0314    0.0000 C   0  0  0  0  0  0  0  0  0  0  0  0
   18.9005  -12.1832    0.0000 C   0  0  0  0  0  0  0  0  0  0  0  0
   18.9005  -14.4868    0.0000 C   0  0  0  0  0  0  0  0  0  0  0  0
   25.5504  -14.4868    0.0000 C   0  0  0  0  0  0  0  0  0  0  0  0
   17.5705  -14.4868    0.0000 N   0  0  0  0  0  0  0  0  0  0  0  0
   26.8803  -14.4868    0.0000 N   0  0  0  0  0  0  0  0  0  0  0  0
   19.5655  -15.6386    0.0000 O   0  0  0  0  0  0  0  0  0  0  0  0
   24.8854  -15.6386    0.0000 O   0  0  0  0  0  0  0  0  0  0  0  0
  3  1  2  0
  4  2  2  0
  5  3  1  0
  6  5  2  0
  7  1  1  0
  2  1  1  0
  8  7  2  0
  9  2  1  0
 10  8  1  0
 10  9  2  0
 11  4  1  0
  6  4  1  0
 12 11  2  0
 13  6  1  0
 14 12  1  0
 14 13  2  0
 12 15  1  0
 10 16  1  0
 15 17  1  0
 16 18  1  0
 15 19  2  0
 16 20  2  0
M  END
>  <Name>  (235) 
PDAM

>  <logK_Dy_z=3.0_T=25_I=1.0>  (235) 
4.05

$$$$

     RDKit          2D

  8  8  0  0  0  0  0  0  0  0999 V2000
   19.4786   -7.0719    0.0000 C   0  0  0  0  0  0  0  0  0  0  0  0
   20.6936   -6.5309    0.0000 C   0  0  0  0  0  0  0  0  0  0  0  0
   19.6176   -8.3946    0.0000 C   0  0  0  0  0  0  0  0  0  0  0  0
   21.5835   -7.5193    0.0000 C   0  0  0  0  0  0  0  0  0  0  0  0
   20.9185   -8.6711    0.0000 N   0  0  0  0  0  0  0  0  0  0  0  0
   22.9062   -7.3803    0.0000 C   0  0  0  0  0  0  0  0  0  0  0  0
   23.4472   -6.1653    0.0000 O   0  0  0  0  0  0  0  0  0  0  0  0
   23.6880   -8.4563    0.0000 O   0  0  0  0  0  0  0  0  0  0  0  0
  2  1  1  0
  3  1  1  0
  4  2  1  0
  5  3  1  0
  5  4  1  0
  4  6  1  0
  6  7  2  0
  6  8  1  0
M  END
>  <Name>  (236) 
Proline

>  <logK_Dy_z=3.0_T=25_I=1.0>  (236) 
5.77

$$$$

     RDKit          2D

 20 20  0  0  0  0  0  0  0  0999 V2000
   15.0751   -8.7545    0.0000 C   0  0  0  0  0  0  0  0  0  0  0  0
   15.0791  -10.0767    0.0000 C   0  0  0  0  0  0  0  0  0  0  0  0
   13.9318   -8.0945    0.0000 C   0  0  0  0  0  0  0  0  0  0  0  0
   13.9320  -10.7343    0.0000 N   0  0  0  0  0  0  0  0  0  0  0  0
   12.7847   -8.7521    0.0000 C   0  0  0  0  0  0  0  0  0  0  0  0
   12.7888  -10.0743    0.0000 C   0  0  0  0  0  0  0  0  0  0  0  0
   16.2305  -10.7415    0.0000 C   0  0  0  0  0  0  0  0  0  0  0  0
   11.6372  -10.7397    0.0000 C   0  0  0  0  0  0  0  0  0  0  0  0
   10.4858  -10.0749    0.0000 N   0  0  0  0  0  0  0  0  0  0  0  0
   17.3775  -10.0839    0.0000 N   0  0  0  0  0  0  0  0  0  0  0  0
   11.6367  -12.0697    0.0000 O   0  0  0  0  0  0  0  0  0  0  0  0
   16.2345  -12.0637    0.0000 O   0  0  0  0  0  0  0  0  0  0  0  0
   10.4863   -8.7449    0.0000 C   0  0  0  0  0  0  0  0  0  0  0  0
    9.3352   -8.0803    0.0000 C   0  0  0  0  0  0  0  0  0  0  0  0
    9.3342  -10.7403    0.0000 C   0  0  0  0  0  0  0  0  0  0  0  0
    8.1831  -10.0758    0.0000 C   0  0  0  0  0  0  0  0  0  0  0  0
   17.3780   -8.7539    0.0000 C   0  0  0  0  0  0  0  0  0  0  0  0
   18.5296   -8.0885    0.0000 C   0  0  0  0  0  0  0  0  0  0  0  0
   18.5286  -10.7485    0.0000 C   0  0  0  0  0  0  0  0  0  0  0  0
   19.6802  -10.0830    0.0000 C   0  0  0  0  0  0  0  0  0  0  0  0
  2  1  2  0
  3  1  1  0
  4  2  1  0
  5  3  2  0
  6  4  2  0
  6  5  1  0
  2  7  1  0
  6  8  1  0
  8  9  1  0
  7 10  1  0
  8 11  2  0
  7 12  2  0
  9 13  1  0
 13 14  1  0
  9 15  1  0
 15 16  1  0
 10 17  1  0
 17 18  1  0
 10 19  1  0
 19 20  1  0
M  END
>  <Name>  (237) 
PyEt2

>  <logK_Dy_z=3.0_T=25_I=1.0>  (237) 
7.5

$$$$

     RDKit          2D

 24 24  0  0  0  0  0  0  0  0999 V2000
   15.1316   -9.7748    0.0000 C   0  0  0  0  0  0  0  0  0  0  0  0
   15.1316  -11.1048    0.0000 C   0  0  0  0  0  0  0  0  0  0  0  0
   13.9797   -9.1098    0.0000 C   0  0  0  0  0  0  0  0  0  0  0  0
   13.9797  -11.7698    0.0000 N   0  0  0  0  0  0  0  0  0  0  0  0
   12.8279   -9.7748    0.0000 C   0  0  0  0  0  0  0  0  0  0  0  0
   12.8279  -11.1048    0.0000 C   0  0  0  0  0  0  0  0  0  0  0  0
   16.2834  -11.7698    0.0000 C   0  0  0  0  0  0  0  0  0  0  0  0
   11.6761  -11.7698    0.0000 C   0  0  0  0  0  0  0  0  0  0  0  0
   10.5243  -11.1048    0.0000 N   0  0  0  0  0  0  0  0  0  0  0  0
   17.4352  -11.1048    0.0000 N   0  0  0  0  0  0  0  0  0  0  0  0
   11.6761  -13.0998    0.0000 O   0  0  0  0  0  0  0  0  0  0  0  0
   16.2834  -13.0998    0.0000 O   0  0  0  0  0  0  0  0  0  0  0  0
   10.5243   -9.7748    0.0000 C   0  0  0  0  0  0  0  0  0  0  0  0
    9.3725   -9.1098    0.0000 C   0  0  0  0  0  0  0  0  0  0  0  0
    9.3725  -11.7698    0.0000 C   0  0  0  0  0  0  0  0  0  0  0  0
    8.2207  -11.1048    0.0000 C   0  0  0  0  0  0  0  0  0  0  0  0
   17.4352   -9.7748    0.0000 C   0  0  0  0  0  0  0  0  0  0  0  0
   18.5870   -9.1098    0.0000 C   0  0  0  0  0  0  0  0  0  0  0  0
   18.5870  -11.7698    0.0000 C   0  0  0  0  0  0  0  0  0  0  0  0
   19.7388  -11.1048    0.0000 C   0  0  0  0  0  0  0  0  0  0  0  0
   11.6761   -9.1098    0.0000 C   0  0  0  0  0  0  0  0  0  0  0  0
    9.3725  -13.0998    0.0000 C   0  0  0  0  0  0  0  0  0  0  0  0
   16.2834   -9.1098    0.0000 C   0  0  0  0  0  0  0  0  0  0  0  0
   18.5870  -13.0998    0.0000 C   0  0  0  0  0  0  0  0  0  0  0  0
  2  1  2  0
  3  1  1  0
  4  2  1  0
  5  3  2  0
  6  4  2  0
  6  5  1  0
  2  7  1  0
  6  8  1  0
  8  9  1  0
  7 10  1  0
  8 11  2  0
  7 12  2  0
  9 13  1  0
 13 14  1  0
  9 15  1  0
 15 16  1  0
 10 17  1  0
 17 18  1  0
 10 19  1  0
 19 20  1  0
 13 21  1  0
 15 22  1  0
 17 23  1  0
 19 24  1  0
M  END
>  <Name>  (238) 
PyiPr2

>  <logK_Dy_z=3.0_T=25_I=1.0>  (238) 
7.7

$$$$

     RDKit          2D

  8  8  0  0  0  0  0  0  0  0999 V2000
   12.6190   -9.6665    0.0000 C   0  0  0  0  0  0  0  0  0  0  0  0
   12.6190  -10.9965    0.0000 C   0  0  0  0  0  0  0  0  0  0  0  0
   11.4672   -9.0015    0.0000 C   0  0  0  0  0  0  0  0  0  0  0  0
   11.4672  -11.6615    0.0000 C   0  0  0  0  0  0  0  0  0  0  0  0
   10.3154   -9.6665    0.0000 C   0  0  0  0  0  0  0  0  0  0  0  0
   10.3154  -10.9965    0.0000 C   0  0  0  0  0  0  0  0  0  0  0  0
   13.7708  -11.6615    0.0000 O   0  0  0  0  0  0  0  0  0  0  0  0
   11.4672  -12.9915    0.0000 O   0  0  0  0  0  0  0  0  0  0  0  0
  2  1  2  0
  3  1  1  0
  4  2  1  0
  5  3  2  0
  6  4  2  0
  6  5  1  0
  2  7  1  0
  4  8  1  0
M  END
>  <Name>  (239) 
Pyrocatechol

>  <logK_Dy_z=3.0_T=25_I=1.0>  (239) 
9.12

$$$$

     RDKit          2D

 13 13  0  0  1  0  0  0  0  0999 V2000
   12.6171  -10.7102    0.0000 C   0  0  0  0  0  0  0  0  0  0  0  0
   12.6171  -12.0402    0.0000 C   0  0  0  0  0  0  0  0  0  0  0  0
   11.4652  -10.0452    0.0000 C   0  0  0  0  0  0  0  0  0  0  0  0
   11.4652  -12.7052    0.0000 C   0  0  0  0  0  0  0  0  0  0  0  0
   10.3134  -10.7102    0.0000 C   0  0  0  0  0  0  0  0  0  0  0  0
   10.3134  -12.0402    0.0000 C   0  0  0  0  0  0  0  0  0  0  0  0
   12.1302   -8.8934    0.0000 C   0  0  0  0  0  0  0  0  0  0  0  0
   13.7689  -12.7052    0.0000 O   0  0  0  0  0  0  0  0  0  0  0  0
   13.4602   -8.8934    0.0000 O   0  0  0  0  0  0  0  0  0  0  0  0
   11.4652   -7.7416    0.0000 O   0  0  0  0  0  0  0  0  0  0  0  0
   10.8002   -8.8934    0.0000 O   0  0  0  0  0  0  0  0  0  0  0  0
    9.1616  -12.7052    0.0000 O   0  0  0  0  0  0  0  0  0  0  0  0
   11.4652  -14.0352    0.0000 O   0  0  0  0  0  0  0  0  0  0  0  0
  2  1  1  0
  3  1  1  0
  4  2  1  0
  5  3  1  0
  6  4  1  0
  6  5  1  0
  3  7  1  0
  2  8  1  1
  7  9  1  0
  7 10  2  0
  3 11  1  6
  6 12  1  6
  4 13  1  6
M  END
>  <Name>  (240) 
Quinic

>  <logK_Dy_z=3.0_T=25_I=1.0>  (240) 
2.94

$$$$

     RDKit          2D

 10 10  0  0  0  0  0  0  0  0999 V2000
   14.0220   -8.1322    0.0000 C   0  0  0  0  0  0  0  0  0  0  0  0
   14.0220   -9.4622    0.0000 C   0  0  0  0  0  0  0  0  0  0  0  0
   12.8702   -7.4672    0.0000 C   0  0  0  0  0  0  0  0  0  0  0  0
   12.8702  -10.1272    0.0000 C   0  0  0  0  0  0  0  0  0  0  0  0
   11.7184   -8.1322    0.0000 C   0  0  0  0  0  0  0  0  0  0  0  0
   11.7184   -9.4622    0.0000 C   0  0  0  0  0  0  0  0  0  0  0  0
   15.1738   -7.4672    0.0000 C   0  0  0  0  0  0  0  0  0  0  0  0
   12.8702   -6.1372    0.0000 O   0  0  0  0  0  0  0  0  0  0  0  0
   15.1738   -6.1372    0.0000 O   0  0  0  0  0  0  0  0  0  0  0  0
   16.3257   -8.1322    0.0000 O   0  0  0  0  0  0  0  0  0  0  0  0
  2  1  2  0
  3  1  1  0
  4  2  1  0
  5  3  2  0
  6  4  2  0
  6  5  1  0
  1  7  1  0
  3  8  1  0
  7  9  2  0
  7 10  1  0
M  END
>  <Name>  (241) 
Salicylic

>  <logK_Dy_z=3.0_T=25_I=1.0>  (241) 
10.26

$$$$

     RDKit          2D

  7  6  0  0  1  0  0  0  0  0999 V2000
   10.1670   -9.1163    0.0000 C   0  0  0  0  0  0  0  0  0  0  0  0
   11.1207  -10.7682    0.0000 C   0  0  0  0  0  0  0  0  0  0  0  0
   13.0282  -10.7682    0.0000 C   0  0  0  0  0  0  0  0  0  0  0  0
   10.1670  -12.4201    0.0000 N   0  0  0  0  0  0  0  0  0  0  0  0
    8.2595   -9.1163    0.0000 O   0  0  0  0  0  0  0  0  0  0  0  0
   13.9819   -9.1163    0.0000 O   0  0  0  0  0  0  0  0  0  0  0  0
   13.9819  -12.4201    0.0000 O   0  0  0  0  0  0  0  0  0  0  0  0
  1  2  1  0
  2  3  1  0
  2  4  1  1
  1  5  1  0
  3  6  2  0
  3  7  1  0
M  END
>  <Name>  (242) 
Serine

>  <logK_Dy_z=3.0_T=25_I=1.0>  (242) 
3.4

$$$$

     RDKit          2D

  5  4  0  0  0  0  0  0  0  0999 V2000
   14.0772  -12.3706    0.0000 S   0  0  0  0  0  0  0  0  0  0  0  0
   14.0772  -10.7503    0.0000 O   0  0  0  0  0  0  0  0  0  0  0  0
   15.6975  -12.3706    0.0000 O   0  0  0  0  0  0  0  0  0  0  0  0
   12.4568  -12.3706    0.0000 O   0  0  0  0  0  0  0  0  0  0  0  0
   14.0772  -13.9909    0.0000 O   0  0  0  0  0  0  0  0  0  0  0  0
  1  2  1  0
  1  3  2  0
  1  4  1  0
  1  5  2  0
M  CHG  2   2  -1   4  -1
M  END
>  <Name>  (243) 
Sulfate

>  <logK_Dy_z=3.0_T=25_I=1.0>  (243) 
3.43

$$$$

     RDKit          2D

  8  7  0  0  0  0  0  0  0  0999 V2000
   10.8865  -10.2455    0.0000 C   0  0  0  0  0  0  0  0  0  0  0  0
   12.5403   -7.3811    0.0000 C   0  0  0  0  0  0  0  0  0  0  0  0
   15.8478   -7.3811    0.0000 C   0  0  0  0  0  0  0  0  0  0  0  0
   17.5016  -10.2455    0.0000 C   0  0  0  0  0  0  0  0  0  0  0  0
   17.5016   -4.5166    0.0000 N   0  0  0  0  0  0  0  0  0  0  0  0
   10.8865   -4.5166    0.0000 O   0  0  0  0  0  0  0  0  0  0  0  0
   20.8091  -10.2455    0.0000 O   0  0  0  0  0  0  0  0  0  0  0  0
   15.8478  -13.1099    0.0000 O   0  0  0  0  0  0  0  0  0  0  0  0
  1  2  1  0
  2  3  1  0
  3  4  1  0
  3  5  1  0
  2  6  1  0
  4  7  1  0
  4  8  2  0
M  END
>  <Name>  (244) 
Threonine

>  <logK_Dy_z=3.0_T=25_I=1.0>  (244) 
3.3

$$$$

     RDKit          2D

 16 16  0  0  0  0  0  0  0  0999 V2000
   16.3927   -8.3415    0.0000 C   0  0  0  0  0  0  0  0  0  0  0  0
   15.7277   -9.4933    0.0000 C   0  0  0  0  0  0  0  0  0  0  0  0
   15.7277   -7.1897    0.0000 C   0  0  0  0  0  0  0  0  0  0  0  0
   14.3977   -9.4933    0.0000 C   0  0  0  0  0  0  0  0  0  0  0  0
   14.3977   -7.1897    0.0000 C   0  0  0  0  0  0  0  0  0  0  0  0
   13.7326   -8.3415    0.0000 C   0  0  0  0  0  0  0  0  0  0  0  0
   16.3927  -10.6451    0.0000 S   0  0  0  0  0  0  0  0  0  0  0  0
   12.4026   -8.3415    0.0000 S   0  0  0  0  0  0  0  0  0  0  0  0
   16.3927   -6.0379    0.0000 O   0  0  0  0  0  0  0  0  0  0  0  0
   17.7227   -8.3415    0.0000 O   0  0  0  0  0  0  0  0  0  0  0  0
   17.5445   -9.9801    0.0000 O   0  0  0  0  0  0  0  0  0  0  0  0
   15.2408  -11.3101    0.0000 O   0  0  0  0  0  0  0  0  0  0  0  0
   17.0577  -11.7969    0.0000 O   0  0  0  0  0  0  0  0  0  0  0  0
   12.4026   -7.0115    0.0000 O   0  0  0  0  0  0  0  0  0  0  0  0
   12.4026   -9.6715    0.0000 O   0  0  0  0  0  0  0  0  0  0  0  0
   11.0726   -8.3415    0.0000 O   0  0  0  0  0  0  0  0  0  0  0  0
  2  1  2  0
  3  1  1  0
  4  2  1  0
  5  3  2  0
  6  4  2  0
  6  5  1  0
  2  7  1  0
  6  8  1  0
  3  9  1  0
  1 10  1  0
  7 11  2  0
  7 12  2  0
  7 13  1  0
  8 14  2  0
  8 15  2  0
  8 16  1  0
M  END
>  <Name>  (245) 
Tiron

>  <logK_Dy_z=3.0_T=25_I=1.0>  (245) 
14.36

$$$$

     RDKit          2D

 22 22  0  0  0  0  0  0  0  0999 V2000
   14.4057  -10.1424    0.0000 C   0  0  0  0  0  0  0  0  0  0  0  0
   13.7407  -11.2942    0.0000 C   0  0  0  0  0  0  0  0  0  0  0  0
   13.7407   -8.9906    0.0000 C   0  0  0  0  0  0  0  0  0  0  0  0
   12.4107  -11.2942    0.0000 C   0  0  0  0  0  0  0  0  0  0  0  0
   12.4107   -8.9906    0.0000 C   0  0  0  0  0  0  0  0  0  0  0  0
   11.7457  -10.1424    0.0000 C   0  0  0  0  0  0  0  0  0  0  0  0
   14.4057   -7.8387    0.0000 N   0  0  0  0  0  0  0  0  0  0  0  0
   11.7457   -7.8387    0.0000 N   0  0  0  0  0  0  0  0  0  0  0  0
   15.7357   -7.8387    0.0000 C   0  0  0  0  0  0  0  0  0  0  0  0
   16.4007   -6.6869    0.0000 C   0  0  0  0  0  0  0  0  0  0  0  0
   16.4007   -8.9906    0.0000 C   0  0  0  0  0  0  0  0  0  0  0  0
   10.4157   -7.8387    0.0000 C   0  0  0  0  0  0  0  0  0  0  0  0
    9.7507   -6.6869    0.0000 C   0  0  0  0  0  0  0  0  0  0  0  0
    9.7507   -8.9906    0.0000 C   0  0  0  0  0  0  0  0  0  0  0  0
   10.4157   -5.5351    0.0000 O   0  0  0  0  0  0  0  0  0  0  0  0
    8.4207   -6.6869    0.0000 O   0  0  0  0  0  0  0  0  0  0  0  0
    8.4207   -8.9906    0.0000 O   0  0  0  0  0  0  0  0  0  0  0  0
   10.4157  -10.1424    0.0000 O   0  0  0  0  0  0  0  0  0  0  0  0
   17.7307   -6.6869    0.0000 O   0  0  0  0  0  0  0  0  0  0  0  0
   15.7357   -5.5351    0.0000 O   0  0  0  0  0  0  0  0  0  0  0  0
   17.7307   -8.9906    0.0000 O   0  0  0  0  0  0  0  0  0  0  0  0
   15.7357  -10.1424    0.0000 O   0  0  0  0  0  0  0  0  0  0  0  0
  2  1  1  0
  3  1  1  0
  4  2  1  0
  5  3  1  0
  6  4  1  0
  6  5  1  0
  3  7  1  0
  5  8  1  0
  7  9  1  0
  9 10  1  0
  9 11  1  0
  8 12  1  0
 12 13  1  0
 12 14  1  0
 13 15  2  0
 13 16  1  0
 14 17  1  0
 14 18  2  0
 10 19  2  0
 10 20  1  0
 11 21  1  0
 11 22  2  0
M  END
>  <Name>  (246) 
trans-1&2-diaminocyclohexane-N&N'-dimalonic

>  <logK_Dy_z=3.0_T=25_I=1.0>  (246) 
15.59

$$$$

     RDKit          2D

 24 24  0  0  0  0  0  0  0  0999 V2000
   15.1187  -14.1842    0.0000 C   0  0  0  0  0  0  0  0  0  0  0  0
   14.4689  -15.3270    0.0000 C   0  0  0  0  0  0  0  0  0  0  0  0
   14.4540  -13.0328    0.0000 C   0  0  0  0  0  0  0  0  0  0  0  0
   13.1386  -15.3274    0.0000 C   0  0  0  0  0  0  0  0  0  0  0  0
   13.1395  -13.0245    0.0000 C   0  0  0  0  0  0  0  0  0  0  0  0
   12.4739  -14.1760    0.0000 C   0  0  0  0  0  0  0  0  0  0  0  0
   15.1196  -11.8813    0.0000 N   0  0  0  0  0  0  0  0  0  0  0  0
   12.4793  -11.8809    0.0000 N   0  0  0  0  0  0  0  0  0  0  0  0
   16.4451  -11.8731    0.0000 C   0  0  0  0  0  0  0  0  0  0  0  0
   17.1151  -10.7291    0.0000 C   0  0  0  0  0  0  0  0  0  0  0  0
   11.1492  -11.8816    0.0000 C   0  0  0  0  0  0  0  0  0  0  0  0
   10.4844  -10.7302    0.0000 C   0  0  0  0  0  0  0  0  0  0  0  0
   11.1499   -9.5783    0.0000 O   0  0  0  0  0  0  0  0  0  0  0  0
    9.1544  -10.7304    0.0000 O   0  0  0  0  0  0  0  0  0  0  0  0
   16.4505   -9.5780    0.0000 O   0  0  0  0  0  0  0  0  0  0  0  0
   18.4406  -10.7210    0.0000 O   0  0  0  0  0  0  0  0  0  0  0  0
   10.4838  -13.0330    0.0000 C   0  0  0  0  0  0  0  0  0  0  0  0
    9.1537  -13.0337    0.0000 C   0  0  0  0  0  0  0  0  0  0  0  0
    8.4889  -11.8823    0.0000 O   0  0  0  0  0  0  0  0  0  0  0  0
    8.4883  -14.1851    0.0000 O   0  0  0  0  0  0  0  0  0  0  0  0
   17.1097  -13.0243    0.0000 C   0  0  0  0  0  0  0  0  0  0  0  0
   18.4400  -13.0239    0.0000 C   0  0  0  0  0  0  0  0  0  0  0  0
   19.1052  -11.8722    0.0000 O   0  0  0  0  0  0  0  0  0  0  0  0
   19.1048  -14.1753    0.0000 O   0  0  0  0  0  0  0  0  0  0  0  0
  2  1  1  0
  3  1  1  0
  4  2  1  0
  5  3  1  0
  6  4  1  0
  6  5  1  0
  3  7  1  0
  5  8  1  0
  7  9  1  0
  9 10  1  0
  8 11  1  0
 11 12  1  0
 12 13  2  0
 12 14  1  0
 10 15  2  0
 10 16  1  0
 11 17  1  0
 18 19  1  0
 18 20  2  0
 17 18  1  0
  9 21  1  0
 22 23  1  0
 22 24  2  0
 21 22  1  0
M  END
>  <Name>  (247) 
trans-1&2-diaminocyclohexane-N&N'-disuccinic

>  <logK_Dy_z=3.0_T=25_I=1.0>  (247) 
14.04

$$$$

     RDKit          2D

 12 12  0  0  0  0  0  0  0  0999 V2000
    9.0185   -8.9905    0.0000 C   0  0  0  0  0  0  0  0  0  0  0  0
    9.6835  -10.1423    0.0000 C   0  0  0  0  0  0  0  0  0  0  0  0
    7.6885   -8.9905    0.0000 C   0  0  0  0  0  0  0  0  0  0  0  0
    9.0185  -11.2941    0.0000 C   0  0  0  0  0  0  0  0  0  0  0  0
    7.0235  -10.1423    0.0000 C   0  0  0  0  0  0  0  0  0  0  0  0
    7.6885  -11.2941    0.0000 C   0  0  0  0  0  0  0  0  0  0  0  0
   11.0135  -10.1423    0.0000 C   0  0  0  0  0  0  0  0  0  0  0  0
   11.6785  -11.2941    0.0000 C   0  0  0  0  0  0  0  0  0  0  0  0
   11.6785   -8.9905    0.0000 C   0  0  0  0  0  0  0  0  0  0  0  0
   13.0085  -11.2941    0.0000 O   0  0  0  0  0  0  0  0  0  0  0  0
   13.0085   -8.9905    0.0000 O   0  0  0  0  0  0  0  0  0  0  0  0
   11.0135   -7.8387    0.0000 O   0  0  0  0  0  0  0  0  0  0  0  0
  2  1  2  0
  3  1  1  0
  4  2  1  0
  5  3  2  0
  6  4  2  0
  6  5  1  0
  2  7  1  0
  7  8  1  0
  7  9  1  0
  8 10  1  0
  9 11  1  0
  9 12  2  0
M  END
>  <Name>  (248) 
Tropic

>  <logK_Dy_z=3.0_T=25_I=1.0>  (248) 
2.1

$$$$

     RDKit          2D

  8  7  0  0  1  0  0  0  0  0999 V2000
    8.5227   -6.7045    0.0000 C   0  0  0  0  0  0  0  0  0  0  0  0
    8.5227   -8.3723    0.0000 C   0  0  0  0  0  0  0  0  0  0  0  0
    7.0784   -9.2062    0.0000 C   0  0  0  0  0  0  0  0  0  0  0  0
    9.9670   -9.2062    0.0000 C   0  0  0  0  0  0  0  0  0  0  0  0
   11.4113   -8.3723    0.0000 C   0  0  0  0  0  0  0  0  0  0  0  0
    9.9670  -10.8739    0.0000 C   0  0  0  0  0  0  0  0  0  0  0  0
   12.8556   -9.2062    0.0000 O   0  0  0  0  0  0  0  0  0  0  0  0
   11.4113   -6.7045    0.0000 O   0  0  0  0  0  0  0  0  0  0  0  0
  1  2  1  0
  2  3  1  0
  2  4  1  0
  4  5  1  0
  4  6  1  1
  5  7  1  0
  5  8  2  0
M  END
>  <Name>  (249) 
Valine

>  <logK_Dy_z=3.0_T=25_I=1.0>  (249) 
4.03

$$$$
