
     RDKit          2D

  5  4  0  0  0  0  0  0  0  0999 V2000
    1.2990    0.7500    0.0000 C   0  0  0  0  0  0  0  0  0  0  0  0
    0.0000    0.0000    0.0000 C   0  0  0  0  0  0  0  0  0  0  0  0
   -1.2990    0.7500    0.0000 N   0  0  0  0  0  0  0  0  0  0  0  0
    2.5981   -0.0000    0.0000 O   0  0  0  0  0  0  0  0  0  0  0  0
    1.2990    2.2500    0.0000 O   0  0  0  0  0  0  0  0  0  0  0  0
  1  2  1  0
  2  3  1  0
  1  4  1  0
  1  5  2  0
M  END
>  <Name>  (1) 
Aminoacetic_acid_(Glycine)

>  <logK_Lu_z=3.0_T=25_I=0.1>  (1) 
3.9

$$$$

     RDKit          2D

  9  8  0  0  0  0  0  0  0  0999 V2000
   -2.5981    0.0000    0.0000 O   0  0  0  0  0  0  0  0  0  0  0  0
   -1.2990    0.7500    0.0000 C   0  0  0  0  0  0  0  0  0  0  0  0
    0.0000    0.0000    0.0000 C   0  0  0  0  0  0  0  0  0  0  0  0
    1.2990    0.7500    0.0000 C   0  0  0  0  0  0  0  0  0  0  0  0
    2.5981   -0.0000    0.0000 C   0  0  0  0  0  0  0  0  0  0  0  0
    2.5981   -1.5000    0.0000 O   0  0  0  0  0  0  0  0  0  0  0  0
    3.8971    0.7500    0.0000 O   0  0  0  0  0  0  0  0  0  0  0  0
    1.2990    2.2500    0.0000 N   0  0  0  0  0  0  0  0  0  0  0  0
   -1.2990    2.2500    0.0000 O   0  0  0  0  0  0  0  0  0  0  0  0
  1  2  1  0
  2  3  1  0
  3  4  1  0
  4  5  1  0
  5  6  2  0
  5  7  1  0
  4  8  1  6
  2  9  2  0
M  END
>  <Name>  (2) 
L-Aminobutanedioic_acid_(Aspartic_acid)

>  <logK_Lu_z=3.0_T=25_I=0.1>  (2) 
6.25

$$$$

     RDKit          2D

 12 11  0  0  0  0  0  0  0  0999 V2000
    1.2990    2.2500    0.0000 O   0  0  0  0  0  0  0  0  0  0  0  0
    1.2990    0.7500    0.0000 C   0  0  0  0  0  0  0  0  0  0  0  0
    0.0000    0.0000    0.0000 C   0  0  0  0  0  0  0  0  0  0  0  0
   -1.2990    0.7500    0.0000 N   0  0  0  0  0  0  0  0  0  0  0  0
   -2.5981    0.0000    0.0000 C   0  0  0  0  0  0  0  0  0  0  0  0
   -3.8971    0.7500    0.0000 C   0  0  0  0  0  0  0  0  0  0  0  0
   -5.1962    0.0000    0.0000 N   0  0  0  0  0  0  0  0  0  0  0  0
   -6.4952    0.7500    0.0000 C   0  0  0  0  0  0  0  0  0  0  0  0
   -7.7942    0.0000    0.0000 C   0  0  0  0  0  0  0  0  0  0  0  0
   -9.0933    0.7500    0.0000 O   0  0  0  0  0  0  0  0  0  0  0  0
   -7.7942   -1.5000    0.0000 O   0  0  0  0  0  0  0  0  0  0  0  0
    2.5981   -0.0000    0.0000 O   0  0  0  0  0  0  0  0  0  0  0  0
  1  2  2  0
  2  3  1  0
  3  4  1  0
  4  5  1  0
  5  6  1  0
  6  7  1  0
  7  8  1  0
  8  9  1  0
  9 10  1  0
  9 11  2  0
  2 12  1  0
M  END
>  <Name>  (3) 
Ethylenediiminodiacetic_acid_(EDDA)

>  <logK_Lu_z=3.0_T=25_I=0.1>  (3) 
9.09

$$$$

     RDKit          2D

 18 17  0  0  0  0  0  0  0  0999 V2000
    0.0000    0.0000    0.0000 C   0  0  0  0  0  0  0  0  0  0  0  0
    1.2990    0.7500    0.0000 C   0  0  0  0  0  0  0  0  0  0  0  0
    2.5981   -0.0000    0.0000 N   0  0  0  0  0  0  0  0  0  0  0  0
    3.8971    0.7500    0.0000 C   0  0  0  0  0  0  0  0  0  0  0  0
    5.1962   -0.0000    0.0000 C   0  0  0  0  0  0  0  0  0  0  0  0
    5.1962   -1.5000    0.0000 O   0  0  0  0  0  0  0  0  0  0  0  0
    6.4952    0.7500    0.0000 O   0  0  0  0  0  0  0  0  0  0  0  0
    3.8971    2.2500    0.0000 C   0  0  0  0  0  0  0  0  0  0  0  0
    2.5981    3.0000    0.0000 O   0  0  0  0  0  0  0  0  0  0  0  0
    5.1962    3.0000    0.0000 O   0  0  0  0  0  0  0  0  0  0  0  0
   -1.2990    0.7500    0.0000 N   0  0  0  0  0  0  0  0  0  0  0  0
   -2.5981    0.0000    0.0000 C   0  0  0  0  0  0  0  0  0  0  0  0
   -3.8971    0.7500    0.0000 C   0  0  0  0  0  0  0  0  0  0  0  0
   -3.8971    2.2500    0.0000 O   0  0  0  0  0  0  0  0  0  0  0  0
   -5.1962    0.0000    0.0000 O   0  0  0  0  0  0  0  0  0  0  0  0
   -2.5981   -1.5000    0.0000 C   0  0  0  0  0  0  0  0  0  0  0  0
   -1.2990   -2.2500    0.0000 O   0  0  0  0  0  0  0  0  0  0  0  0
   -3.8971   -2.2500    0.0000 O   0  0  0  0  0  0  0  0  0  0  0  0
  1  2  1  0
  2  3  1  0
  3  4  1  0
  4  5  1  0
  5  6  2  0
  5  7  1  0
  4  8  1  0
  8  9  2  0
  8 10  1  0
  1 11  1  0
 11 12  1  0
 12 13  1  0
 13 14  2  0
 13 15  1  0
 12 16  1  0
 16 17  2  0
 16 18  1  0
M  END
>  <Name>  (4) 
Ethylenediiminodipropanedioic_acid_(EDDM)

>  <logK_Lu_z=3.0_T=20_I=0.1>  (4) 
12.45

$$$$

     RDKit          2D

 20 19  0  0  0  0  0  0  0  0999 V2000
   -2.5981    0.0000    0.0000 O   0  0  0  0  0  0  0  0  0  0  0  0
   -1.2990    0.7500    0.0000 C   0  0  0  0  0  0  0  0  0  0  0  0
   -1.2990    2.2500    0.0000 O   0  0  0  0  0  0  0  0  0  0  0  0
    0.0000    0.0000    0.0000 C   0  0  0  0  0  0  0  0  0  0  0  0
    1.2990    0.7500    0.0000 C   0  0  0  0  0  0  0  0  0  0  0  0
    1.2990    2.2500    0.0000 N   0  0  0  0  0  0  0  0  0  0  0  0
    2.5981    3.0000    0.0000 C   0  0  0  0  0  0  0  0  0  0  0  0
    2.5981    4.5000    0.0000 C   0  0  0  0  0  0  0  0  0  0  0  0
    3.8971    5.2500    0.0000 N   0  0  0  0  0  0  0  0  0  0  0  0
    3.8971    6.7500    0.0000 C   0  0  0  0  0  0  0  0  0  0  0  0
    5.1962    7.5000    0.0000 C   0  0  0  0  0  0  0  0  0  0  0  0
    5.1962    9.0000    0.0000 C   0  0  0  0  0  0  0  0  0  0  0  0
    6.4952    9.7500    0.0000 O   0  0  0  0  0  0  0  0  0  0  0  0
    3.8971    9.7500    0.0000 O   0  0  0  0  0  0  0  0  0  0  0  0
    2.5981    7.5000    0.0000 C   0  0  0  0  0  0  0  0  0  0  0  0
    2.5981    9.0000    0.0000 O   0  0  0  0  0  0  0  0  0  0  0  0
    1.2990    6.7500    0.0000 O   0  0  0  0  0  0  0  0  0  0  0  0
    2.5981   -0.0000    0.0000 C   0  0  0  0  0  0  0  0  0  0  0  0
    3.8971    0.7500    0.0000 O   0  0  0  0  0  0  0  0  0  0  0  0
    2.5981   -1.5000    0.0000 O   0  0  0  0  0  0  0  0  0  0  0  0
  1  2  1  0
  2  3  2  0
  2  4  1  0
  4  5  1  0
  5  6  1  0
  6  7  1  0
  7  8  1  0
  8  9  1  0
  9 10  1  0
 10 11  1  0
 11 12  1  0
 12 13  1  0
 12 14  2  0
 10 15  1  0
 15 16  1  0
 15 17  2  0
  5 18  1  0
 18 19  1  0
 18 20  2  0
M  END
>  <Name>  (5) 
Ethylenediiminodibutanedioic_acid_(EDDS)

>  <logK_Lu_z=3.0_T=25_I=0.1>  (5) 
14.32

>  <logK_Lu_z=3.0_T=20_I=0.1>  (5) 
14.15

$$$$

     RDKit          2D

 22 21  0  0  0  0  0  0  0  0999 V2000
    1.2990    2.2500    0.0000 O   0  0  0  0  0  0  0  0  0  0  0  0
    1.2990    0.7500    0.0000 C   0  0  0  0  0  0  0  0  0  0  0  0
    0.0000    0.0000    0.0000 C   0  0  0  0  0  0  0  0  0  0  0  0
   -1.2990    0.7500    0.0000 N   0  0  0  0  0  0  0  0  0  0  0  0
   -2.5981    0.0000    0.0000 C   0  0  0  0  0  0  0  0  0  0  0  0
   -2.5981   -1.5000    0.0000 C   0  0  0  0  0  0  0  0  0  0  0  0
   -1.2990   -2.2500    0.0000 O   0  0  0  0  0  0  0  0  0  0  0  0
   -3.8971   -2.2500    0.0000 O   0  0  0  0  0  0  0  0  0  0  0  0
   -3.8971    0.7500    0.0000 C   0  0  0  0  0  0  0  0  0  0  0  0
   -5.1962    0.0000    0.0000 C   0  0  0  0  0  0  0  0  0  0  0  0
   -5.1962   -1.5000    0.0000 O   0  0  0  0  0  0  0  0  0  0  0  0
   -6.4952    0.7500    0.0000 O   0  0  0  0  0  0  0  0  0  0  0  0
    2.5981   -0.0000    0.0000 C   0  0  0  0  0  0  0  0  0  0  0  0
    3.8971    0.7500    0.0000 N   0  0  0  0  0  0  0  0  0  0  0  0
    5.1962   -0.0000    0.0000 C   0  0  0  0  0  0  0  0  0  0  0  0
    5.1962   -1.5000    0.0000 C   0  0  0  0  0  0  0  0  0  0  0  0
    3.8971   -2.2500    0.0000 O   0  0  0  0  0  0  0  0  0  0  0  0
    6.4952   -2.2500    0.0000 O   0  0  0  0  0  0  0  0  0  0  0  0
    6.4952    0.7500    0.0000 C   0  0  0  0  0  0  0  0  0  0  0  0
    7.7942   -0.0000    0.0000 C   0  0  0  0  0  0  0  0  0  0  0  0
    7.7942   -1.5000    0.0000 O   0  0  0  0  0  0  0  0  0  0  0  0
    9.0933    0.7500    0.0000 O   0  0  0  0  0  0  0  0  0  0  0  0
  1  2  1  0
  2  3  1  0
  3  4  1  0
  4  5  1  0
  5  6  1  0
  6  7  2  0
  6  8  1  0
  5  9  1  0
  9 10  1  0
 10 11  2  0
 10 12  1  0
  2 13  1  0
 13 14  1  0
 14 15  1  0
 15 16  1  0
 16 17  2  0
 16 18  1  0
 15 19  1  0
 19 20  1  0
 20 21  2  0
 20 22  1  0
M  END
>  <Name>  (6) 
2-Hydroxy-1,3-propylenediiminodibutanedioic_acid_(rac-_or_meso-isomer_not_stated)

>  <logK_Lu_z=3.0_T=25_I=0.1>  (6) 
12.15

$$$$

     RDKit          2D

 11 10  0  0  0  0  0  0  0  0999 V2000
    1.2990    0.7500    0.0000 C   0  0  0  0  0  0  0  0  0  0  0  0
    2.5981   -0.0000    0.0000 O   0  0  0  0  0  0  0  0  0  0  0  0
    0.0000    0.0000    0.0000 C   0  0  0  0  0  0  0  0  0  0  0  0
   -1.2990    0.7500    0.0000 N   0  0  0  0  0  0  0  0  0  0  0  0
   -2.5981    0.0000    0.0000 C   0  0  0  0  0  0  0  0  0  0  0  0
   -3.8971    0.7500    0.0000 C   0  0  0  0  0  0  0  0  0  0  0  0
   -5.1962    0.0000    0.0000 O   0  0  0  0  0  0  0  0  0  0  0  0
   -1.2990    2.2500    0.0000 C   0  0  0  0  0  0  0  0  0  0  0  0
   -2.5981    3.0000    0.0000 C   0  0  0  0  0  0  0  0  0  0  0  0
   -2.5981    4.5000    0.0000 O   0  0  0  0  0  0  0  0  0  0  0  0
    1.2990    2.2500    0.0000 O   0  0  0  0  0  0  0  0  0  0  0  0
  1  2  1  0
  1  3  1  0
  3  4  1  0
  4  5  1  0
  5  6  1  0
  6  7  1  0
  4  8  1  0
  8  9  1  0
  9 10  1  0
  1 11  2  0
M  END
>  <Name>  (7) 
N,N-Bis(2-hydroxyethyl)glycine_(Bicine)

>  <logK_Lu_z=3.0_T=20_I=0.1>  (7) 
5.46

$$$$

     RDKit          2D

 28 29  0  0  0  0  0  0  0  0999 V2000
    5.2500   -9.0933    0.0000 O   0  0  0  0  0  0  0  0  0  0  0  0
    3.7500   -9.0933    0.0000 C   0  0  0  0  0  0  0  0  0  0  0  0
    3.0000  -10.3923    0.0000 O   0  0  0  0  0  0  0  0  0  0  0  0
    3.0000   -7.7942    0.0000 C   0  0  0  0  0  0  0  0  0  0  0  0
    1.5000   -7.7942    0.0000 N   0  0  0  0  0  0  0  0  0  0  0  0
    0.7500   -6.4952    0.0000 C   0  0  0  0  0  0  0  0  0  0  0  0
    1.5000   -5.1962    0.0000 C   0  0  0  0  0  0  0  0  0  0  0  0
    0.7500   -3.8971    0.0000 N   0  0  0  0  0  0  0  0  0  0  0  0
   -0.7500   -3.8971    0.0000 C   0  0  0  0  0  0  0  0  0  0  0  0
   -1.5000   -5.1962    0.0000 C   0  0  0  0  0  0  0  0  0  0  0  0
   -3.0000   -5.1962    0.0000 O   0  0  0  0  0  0  0  0  0  0  0  0
   -0.7500   -6.4952    0.0000 O   0  0  0  0  0  0  0  0  0  0  0  0
    1.5000   -2.5981    0.0000 C   0  0  0  0  0  0  0  0  0  0  0  0
    0.7500   -1.2990    0.0000 C   0  0  0  0  0  0  0  0  0  0  0  0
    1.5000    0.0000    0.0000 C   0  0  0  0  0  0  0  0  0  0  0  0
    0.7500    1.2990    0.0000 C   0  0  0  0  0  0  0  0  0  0  0  0
   -0.7500    1.2990    0.0000 C   0  0  0  0  0  0  0  0  0  0  0  0
   -1.5000    0.0000    0.0000 C   0  0  0  0  0  0  0  0  0  0  0  0
   -0.7500   -1.2990    0.0000 C   0  0  0  0  0  0  0  0  0  0  0  0
   -1.5000   -2.5981    0.0000 O   0  0  0  0  0  0  0  0  0  0  0  0
    0.7500   -9.0933    0.0000 C   0  0  0  0  0  0  0  0  0  0  0  0
   -0.7500   -9.0933    0.0000 C   0  0  0  0  0  0  0  0  0  0  0  0
   -1.5000   -7.7942    0.0000 C   0  0  0  0  0  0  0  0  0  0  0  0
   -3.0000   -7.7942    0.0000 C   0  0  0  0  0  0  0  0  0  0  0  0
   -3.7500   -9.0933    0.0000 C   0  0  0  0  0  0  0  0  0  0  0  0
   -3.0000  -10.3923    0.0000 C   0  0  0  0  0  0  0  0  0  0  0  0
   -1.5000  -10.3923    0.0000 C   0  0  0  0  0  0  0  0  0  0  0  0
   -0.7500  -11.6913    0.0000 O   0  0  0  0  0  0  0  0  0  0  0  0
  1  2  1  0
  2  3  2  0
  2  4  1  0
  4  5  1  0
  5  6  1  0
  6  7  1  0
  7  8  1  0
  8  9  1  0
  9 10  1  0
 10 11  1  0
 10 12  2  0
  8 13  1  0
 13 14  1  0
 14 15  2  0
 15 16  1  0
 16 17  2  0
 17 18  1  0
 18 19  2  0
 19 20  1  0
  5 21  1  0
 21 22  1  0
 22 23  2  0
 23 24  1  0
 24 25  2  0
 25 26  1  0
 26 27  2  0
 27 28  1  0
 19 14  1  0
 27 22  1  0
M  END
>  <Name>  (8) 
N,N'-Bis(2-hydroxybenzyl)ethylenedinitrilodiacetic_acid_(HBED)

>  <logK_Lu_z=3.0_T=25_I=0.1>  (8) 
20.38

>  <logK_Lu_z=3.0_T=20_I=0.1>  (8) 
20.7

$$$$

     RDKit          2D

 29 29  0  0  0  0  0  0  0  0999 V2000
    5.1073    0.0000    0.0000 O   0  0  0  0  0  0  0  0  0  0  0  0
    3.6073    0.0000    0.0000 C   0  0  0  0  0  0  0  0  0  0  0  0
    3.2954    1.4672    0.0000 C   0  0  0  0  0  0  0  0  0  0  0  0
    2.4138    2.6807    0.0000 N   0  0  0  0  0  0  0  0  0  0  0  0
    1.1147    3.4307    0.0000 C   0  0  0  0  0  0  0  0  0  0  0  0
   -0.3771    3.5875    0.0000 C   0  0  0  0  0  0  0  0  0  0  0  0
   -1.8037    3.1240    0.0000 N   0  0  0  0  0  0  0  0  0  0  0  0
   -2.9184    2.1203    0.0000 C   0  0  0  0  0  0  0  0  0  0  0  0
   -3.5285    0.7500    0.0000 C   0  0  0  0  0  0  0  0  0  0  0  0
   -3.5285   -0.7500    0.0000 N   0  0  0  0  0  0  0  0  0  0  0  0
   -2.9184   -2.1203    0.0000 C   0  0  0  0  0  0  0  0  0  0  0  0
   -1.8037   -3.1240    0.0000 C   0  0  0  0  0  0  0  0  0  0  0  0
   -0.3771   -3.5875    0.0000 N   0  0  0  0  0  0  0  0  0  0  0  0
    1.1147   -3.4307    0.0000 C   0  0  0  0  0  0  0  0  0  0  0  0
    2.4138   -2.6807    0.0000 C   0  0  0  0  0  0  0  0  0  0  0  0
    3.2954   -1.4672    0.0000 N   0  0  0  0  0  0  0  0  0  0  0  0
   -2.5537   -4.4231    0.0000 O   0  0  0  0  0  0  0  0  0  0  0  0
   -4.9957   -1.0619    0.0000 C   0  0  0  0  0  0  0  0  0  0  0  0
   -5.9994    0.0528    0.0000 C   0  0  0  0  0  0  0  0  0  0  0  0
   -5.5359    1.4794    0.0000 O   0  0  0  0  0  0  0  0  0  0  0  0
   -7.4666   -0.2590    0.0000 O   0  0  0  0  0  0  0  0  0  0  0  0
   -2.5537    4.4231    0.0000 C   0  0  0  0  0  0  0  0  0  0  0  0
   -1.8037    5.7221    0.0000 C   0  0  0  0  0  0  0  0  0  0  0  0
   -0.3037    5.7221    0.0000 O   0  0  0  0  0  0  0  0  0  0  0  0
   -2.5537    7.0211    0.0000 O   0  0  0  0  0  0  0  0  0  0  0  0
    3.4175    3.7955    0.0000 C   0  0  0  0  0  0  0  0  0  0  0  0
    4.8847    3.4836    0.0000 C   0  0  0  0  0  0  0  0  0  0  0  0
    5.3482    2.0570    0.0000 O   0  0  0  0  0  0  0  0  0  0  0  0
    5.8884    4.5983    0.0000 O   0  0  0  0  0  0  0  0  0  0  0  0
  1  2  2  0
  2  3  1  0
  3  4  1  0
  4  5  1  0
  5  6  1  0
  6  7  1  0
  7  8  1  0
  8  9  1  0
  9 10  1  0
 10 11  1  0
 11 12  1  0
 12 13  1  0
 13 14  1  0
 14 15  1  0
 15 16  1  0
 12 17  2  0
 10 18  1  0
 18 19  1  0
 19 20  2  0
 19 21  1  0
  7 22  1  0
 22 23  1  0
 23 24  2  0
 23 25  1  0
  4 26  1  0
 26 27  1  0
 27 28  2  0
 27 29  1  0
 16  2  1  0
M  END
>  <Name>  (9) 
9,14-Dioxo-1,4,7,10,13-pentaazacyclopentadecane-1,4,7-triacetic_acid

>  <logK_Lu_z=3.0_T=25_I=0.1>  (9) 
11.1

$$$$

     RDKit          2D

 35 35  0  0  0  0  0  0  0  0999 V2000
    6.5321    0.0000    0.0000 O   0  0  0  0  0  0  0  0  0  0  0  0
    5.0321    0.0000    0.0000 C   0  0  0  0  0  0  0  0  0  0  0  0
    4.8086    1.4832    0.0000 C   0  0  0  0  0  0  0  0  0  0  0  0
    4.1577    2.8347    0.0000 N   0  0  0  0  0  0  0  0  0  0  0  0
    3.1375    3.9343    0.0000 C   0  0  0  0  0  0  0  0  0  0  0  0
    1.8384    4.6843    0.0000 C   0  0  0  0  0  0  0  0  0  0  0  0
    0.3761    5.0181    0.0000 N   0  0  0  0  0  0  0  0  0  0  0  0
   -1.1198    4.9060    0.0000 C   0  0  0  0  0  0  0  0  0  0  0  0
   -2.5161    4.3580    0.0000 C   0  0  0  0  0  0  0  0  0  0  0  0
   -3.6888    3.4227    0.0000 N   0  0  0  0  0  0  0  0  0  0  0  0
   -4.5338    2.1834    0.0000 C   0  0  0  0  0  0  0  0  0  0  0  0
   -4.9759    0.7500    0.0000 C   0  0  0  0  0  0  0  0  0  0  0  0
   -4.9759   -0.7500    0.0000 N   0  0  0  0  0  0  0  0  0  0  0  0
   -4.5338   -2.1834    0.0000 C   0  0  0  0  0  0  0  0  0  0  0  0
   -3.6888   -3.4227    0.0000 C   0  0  0  0  0  0  0  0  0  0  0  0
   -2.5161   -4.3580    0.0000 O   0  0  0  0  0  0  0  0  0  0  0  0
   -1.1198   -4.9060    0.0000 C   0  0  0  0  0  0  0  0  0  0  0  0
    0.3761   -5.0181    0.0000 C   0  0  0  0  0  0  0  0  0  0  0  0
    1.8384   -4.6843    0.0000 O   0  0  0  0  0  0  0  0  0  0  0  0
    3.1375   -3.9343    0.0000 C   0  0  0  0  0  0  0  0  0  0  0  0
    4.1577   -2.8347    0.0000 C   0  0  0  0  0  0  0  0  0  0  0  0
    4.8086   -1.4832    0.0000 N   0  0  0  0  0  0  0  0  0  0  0  0
   -6.4592    0.9736    0.0000 O   0  0  0  0  0  0  0  0  0  0  0  0
   -4.7884    4.4430    0.0000 C   0  0  0  0  0  0  0  0  0  0  0  0
   -4.4546    5.9054    0.0000 C   0  0  0  0  0  0  0  0  0  0  0  0
   -3.0212    6.3475    0.0000 O   0  0  0  0  0  0  0  0  0  0  0  0
   -5.5542    6.9256    0.0000 O   0  0  0  0  0  0  0  0  0  0  0  0
    0.4881    6.5139    0.0000 C   0  0  0  0  0  0  0  0  0  0  0  0
    1.8396    7.1647    0.0000 C   0  0  0  0  0  0  0  0  0  0  0  0
    3.0790    6.3197    0.0000 O   0  0  0  0  0  0  0  0  0  0  0  0
    1.9517    8.6605    0.0000 O   0  0  0  0  0  0  0  0  0  0  0  0
    5.3971    3.6797    0.0000 C   0  0  0  0  0  0  0  0  0  0  0  0
    5.2850    5.1755    0.0000 C   0  0  0  0  0  0  0  0  0  0  0  0
    3.9336    5.8263    0.0000 O   0  0  0  0  0  0  0  0  0  0  0  0
    6.5244    6.0205    0.0000 O   0  0  0  0  0  0  0  0  0  0  0  0
  1  2  2  0
  2  3  1  0
  3  4  1  0
  4  5  1  0
  5  6  1  0
  6  7  1  0
  7  8  1  0
  8  9  1  0
  9 10  1  0
 10 11  1  0
 11 12  1  0
 12 13  1  0
 13 14  1  0
 14 15  1  0
 15 16  1  0
 16 17  1  0
 17 18  1  0
 18 19  1  0
 19 20  1  0
 20 21  1  0
 21 22  1  0
 12 23  2  0
 10 24  1  0
 24 25  1  0
 25 26  2  0
 25 27  1  0
  7 28  1  0
 28 29  1  0
 29 30  2  0
 29 31  1  0
  4 32  1  0
 32 33  1  0
 33 34  2  0
 33 35  1  0
 22  2  1  0
M  END
>  <Name>  (10) 
9,20-Dioxo-13,16-dioxa-1,4,7,10,19-pentaazacycloheneicosane-1,4,7-triacetic_acid

>  <logK_Lu_z=3.0_T=25_I=0.1>  (10) 
17.0

$$$$

     RDKit          2D

 29 29  0  0  0  0  0  0  0  0999 V2000
    5.1073    0.0000    0.0000 O   0  0  0  0  0  0  0  0  0  0  0  0
    3.6073    0.0000    0.0000 C   0  0  0  0  0  0  0  0  0  0  0  0
    3.2954    1.4672    0.0000 C   0  0  0  0  0  0  0  0  0  0  0  0
    2.4138    2.6807    0.0000 N   0  0  0  0  0  0  0  0  0  0  0  0
    1.1147    3.4307    0.0000 C   0  0  0  0  0  0  0  0  0  0  0  0
   -0.3771    3.5875    0.0000 C   0  0  0  0  0  0  0  0  0  0  0  0
   -1.8037    3.1240    0.0000 N   0  0  0  0  0  0  0  0  0  0  0  0
   -2.9184    2.1203    0.0000 C   0  0  0  0  0  0  0  0  0  0  0  0
   -3.5285    0.7500    0.0000 C   0  0  0  0  0  0  0  0  0  0  0  0
   -3.5285   -0.7500    0.0000 N   0  0  0  0  0  0  0  0  0  0  0  0
   -2.9184   -2.1203    0.0000 C   0  0  0  0  0  0  0  0  0  0  0  0
   -1.8037   -3.1240    0.0000 C   0  0  0  0  0  0  0  0  0  0  0  0
   -0.3771   -3.5875    0.0000 N   0  0  0  0  0  0  0  0  0  0  0  0
    1.1147   -3.4307    0.0000 C   0  0  0  0  0  0  0  0  0  0  0  0
    2.4138   -2.6807    0.0000 C   0  0  0  0  0  0  0  0  0  0  0  0
    3.2954   -1.4672    0.0000 N   0  0  0  0  0  0  0  0  0  0  0  0
   -0.5339   -5.0793    0.0000 C   0  0  0  0  0  0  0  0  0  0  0  0
   -1.9042   -5.6894    0.0000 C   0  0  0  0  0  0  0  0  0  0  0  0
   -3.1177   -4.8077    0.0000 O   0  0  0  0  0  0  0  0  0  0  0  0
   -2.0610   -7.1812    0.0000 O   0  0  0  0  0  0  0  0  0  0  0  0
   -4.9957    1.0619    0.0000 O   0  0  0  0  0  0  0  0  0  0  0  0
   -2.5537    4.4231    0.0000 C   0  0  0  0  0  0  0  0  0  0  0  0
   -1.8037    5.7221    0.0000 C   0  0  0  0  0  0  0  0  0  0  0  0
   -0.3037    5.7221    0.0000 O   0  0  0  0  0  0  0  0  0  0  0  0
   -2.5537    7.0211    0.0000 O   0  0  0  0  0  0  0  0  0  0  0  0
    3.4175    3.7955    0.0000 C   0  0  0  0  0  0  0  0  0  0  0  0
    4.8847    3.4836    0.0000 C   0  0  0  0  0  0  0  0  0  0  0  0
    5.3482    2.0570    0.0000 O   0  0  0  0  0  0  0  0  0  0  0  0
    5.8884    4.5983    0.0000 O   0  0  0  0  0  0  0  0  0  0  0  0
  1  2  2  0
  2  3  1  0
  3  4  1  0
  4  5  1  0
  5  6  1  0
  6  7  1  0
  7  8  1  0
  8  9  1  0
  9 10  1  0
 10 11  1  0
 11 12  1  0
 12 13  1  0
 13 14  1  0
 14 15  1  0
 15 16  1  0
 13 17  1  0
 17 18  1  0
 18 19  2  0
 18 20  1  0
  9 21  2  0
  7 22  1  0
 22 23  1  0
 23 24  2  0
 23 25  1  0
  4 26  1  0
 26 27  1  0
 27 28  2  0
 27 29  1  0
 16  2  1  0
M  END
>  <Name>  (11) 
6,14-Dioxo-1,4,7,10,13-pentaazacyclopentadecane-1,4,10-triacetic_acid

>  <logK_Lu_z=3.0_T=25_I=0.1>  (11) 
14.2

$$$$

     RDKit          2D

 28 28  0  0  0  0  0  0  0  0999 V2000
    6.6478   -1.2990    0.0000 O   0  0  0  0  0  0  0  0  0  0  0  0
    5.1478   -1.2990    0.0000 C   0  0  0  0  0  0  0  0  0  0  0  0
    4.3978    0.0000    0.0000 C   0  0  0  0  0  0  0  0  0  0  0  0
    2.8978    0.0000    0.0000 N   0  0  0  0  0  0  0  0  0  0  0  0
    2.5095   -1.4489    0.0000 C   0  0  0  0  0  0  0  0  0  0  0  0
    1.4489   -2.5095    0.0000 C   0  0  0  0  0  0  0  0  0  0  0  0
   -0.0000   -2.8978    0.0000 N   0  0  0  0  0  0  0  0  0  0  0  0
   -0.0000   -4.3978    0.0000 C   0  0  0  0  0  0  0  0  0  0  0  0
   -1.2990   -5.1478    0.0000 C   0  0  0  0  0  0  0  0  0  0  0  0
   -2.5981   -4.3978    0.0000 O   0  0  0  0  0  0  0  0  0  0  0  0
   -1.2990   -6.6478    0.0000 O   0  0  0  0  0  0  0  0  0  0  0  0
   -1.4489   -2.5095    0.0000 C   0  0  0  0  0  0  0  0  0  0  0  0
   -2.5095   -1.4489    0.0000 C   0  0  0  0  0  0  0  0  0  0  0  0
   -2.8978    0.0000    0.0000 N   0  0  0  0  0  0  0  0  0  0  0  0
   -4.3978    0.0000    0.0000 C   0  0  0  0  0  0  0  0  0  0  0  0
   -5.1478    1.2990    0.0000 C   0  0  0  0  0  0  0  0  0  0  0  0
   -4.3978    2.5981    0.0000 O   0  0  0  0  0  0  0  0  0  0  0  0
   -6.6478    1.2990    0.0000 O   0  0  0  0  0  0  0  0  0  0  0  0
   -2.5095    1.4489    0.0000 C   0  0  0  0  0  0  0  0  0  0  0  0
   -1.4489    2.5095    0.0000 C   0  0  0  0  0  0  0  0  0  0  0  0
    0.0000    2.8978    0.0000 N   0  0  0  0  0  0  0  0  0  0  0  0
    0.0000    4.3978    0.0000 C   0  0  0  0  0  0  0  0  0  0  0  0
    1.2990    5.1478    0.0000 C   0  0  0  0  0  0  0  0  0  0  0  0
    2.5981    4.3978    0.0000 O   0  0  0  0  0  0  0  0  0  0  0  0
    1.2990    6.6478    0.0000 O   0  0  0  0  0  0  0  0  0  0  0  0
    1.4489    2.5095    0.0000 C   0  0  0  0  0  0  0  0  0  0  0  0
    2.5095    1.4489    0.0000 C   0  0  0  0  0  0  0  0  0  0  0  0
    4.3978   -2.5981    0.0000 O   0  0  0  0  0  0  0  0  0  0  0  0
  1  2  1  0
  2  3  1  0
  3  4  1  0
  4  5  1  0
  5  6  1  0
  6  7  1  0
  7  8  1  0
  8  9  1  0
  9 10  2  0
  9 11  1  0
  7 12  1  0
 12 13  1  0
 13 14  1  0
 14 15  1  0
 15 16  1  0
 16 17  2  0
 16 18  1  0
 14 19  1  0
 19 20  1  0
 20 21  1  0
 21 22  1  0
 22 23  1  0
 23 24  2  0
 23 25  1  0
 21 26  1  0
 26 27  1  0
  2 28  2  0
 27  4  1  0
M  END
>  <Name>  (12) 
1,4,7,10-Tetraazacyclododecane-N,N',N'',N'''-tetraacetic_acid_(DOTA)

>  <logK_Lu_z=3.0_T=25_I=0.1>  (12) 
23.9

$$$$

     RDKit          2D

 17 16  0  0  0  0  0  0  0  0999 V2000
   -0.2010   -4.4462    0.0000 F   0  0  0  0  0  0  0  0  0  0  0  0
    0.5490   -3.1471    0.0000 C   0  0  0  0  0  0  0  0  0  0  0  0
    1.2990   -1.8481    0.0000 C   0  0  0  0  0  0  0  0  0  0  0  0
    2.0490   -0.5490    0.0000 O   0  0  0  0  0  0  0  0  0  0  0  0
    1.2990    0.7500    0.0000 C   0  0  0  0  0  0  0  0  0  0  0  0
    2.5981    1.5000    0.0000 C   0  0  0  0  0  0  0  0  0  0  0  0
    3.8971    2.2500    0.0000 F   0  0  0  0  0  0  0  0  0  0  0  0
    1.8481    2.7990    0.0000 F   0  0  0  0  0  0  0  0  0  0  0  0
    3.3481    0.2010    0.0000 F   0  0  0  0  0  0  0  0  0  0  0  0
   -0.0000    0.0000    0.0000 C   0  0  0  0  0  0  0  0  0  0  0  0
   -1.2990    0.7500    0.0000 O   0  0  0  0  0  0  0  0  0  0  0  0
   -0.0972   -0.7912    0.0000 O   0  0  0  0  0  0  0  0  0  0  0  0
    0.5490    2.0490    0.0000 F   0  0  0  0  0  0  0  0  0  0  0  0
    0.5652   -1.5366    0.0000 F   0  0  0  0  0  0  0  0  0  0  0  0
    2.5981   -2.5981    0.0000 F   0  0  0  0  0  0  0  0  0  0  0  0
    1.8481   -3.8971    0.0000 F   0  0  0  0  0  0  0  0  0  0  0  0
   -0.7500   -2.3971    0.0000 F   0  0  0  0  0  0  0  0  0  0  0  0
  1  2  1  0
  2  3  1  0
  3  4  1  0
  4  5  1  0
  5  6  1  0
  6  7  1  0
  6  8  1  0
  6  9  1  0
  5 10  1  0
 10 11  1  0
 10 12  2  0
  5 13  1  0
  3 14  1  0
  3 15  1  0
  2 16  1  0
  2 17  1  0
M  END
>  <Name>  (13) 
1,4,7,10,13-Pentaazacyclopentadecane-N,N',N'',N''',N''''-pentaacetic_acid_(PEPA)

>  <logK_Lu_z=3.0_T=25_I=0.1>  (13) 
16.71

$$$$

     RDKit          2D

  9  8  0  0  0  0  0  0  0  0999 V2000
    1.2990    0.7500    0.0000 C   0  0  0  0  0  0  0  0  0  0  0  0
    0.0000    0.0000    0.0000 C   0  0  0  0  0  0  0  0  0  0  0  0
   -1.2990    0.7500    0.0000 N   0  0  0  0  0  0  0  0  0  0  0  0
   -2.5981    0.0000    0.0000 C   0  0  0  0  0  0  0  0  0  0  0  0
   -3.8971    0.7500    0.0000 C   0  0  0  0  0  0  0  0  0  0  0  0
   -5.1962    0.0000    0.0000 O   0  0  0  0  0  0  0  0  0  0  0  0
   -3.8971    2.2500    0.0000 O   0  0  0  0  0  0  0  0  0  0  0  0
    2.5981   -0.0000    0.0000 O   0  0  0  0  0  0  0  0  0  0  0  0
    1.2990    2.2500    0.0000 O   0  0  0  0  0  0  0  0  0  0  0  0
  1  2  1  0
  2  3  1  0
  3  4  1  0
  4  5  1  0
  5  6  1  0
  5  7  2  0
  1  8  1  0
  1  9  2  0
M  END
>  <Name>  (14) 
Iminodiacetic_acid_(IDA)

>  <logK_Lu_z=3.0_T=25_I=0.1>  (14) 
7.61

>  <logK_Lu_z=3.0_T=25_I=1.0>  (14) 
7.06

$$$$

     RDKit          2D

 16 16  0  0  0  0  0  0  0  0999 V2000
    5.2500    1.2990    0.0000 O   0  0  0  0  0  0  0  0  0  0  0  0
    6.0000    0.0000    0.0000 C   0  0  0  0  0  0  0  0  0  0  0  0
    5.2500   -1.2990    0.0000 C   0  0  0  0  0  0  0  0  0  0  0  0
    3.7500   -1.2990    0.0000 N   0  0  0  0  0  0  0  0  0  0  0  0
    3.0000   -2.5981    0.0000 C   0  0  0  0  0  0  0  0  0  0  0  0
    3.7500   -3.8971    0.0000 C   0  0  0  0  0  0  0  0  0  0  0  0
    5.2500   -3.8971    0.0000 O   0  0  0  0  0  0  0  0  0  0  0  0
    3.0000   -5.1962    0.0000 O   0  0  0  0  0  0  0  0  0  0  0  0
    3.0000    0.0000    0.0000 C   0  0  0  0  0  0  0  0  0  0  0  0
    1.5000    0.0000    0.0000 C   0  0  0  0  0  0  0  0  0  0  0  0
    0.7500   -1.2990    0.0000 C   0  0  0  0  0  0  0  0  0  0  0  0
   -0.7500   -1.2990    0.0000 C   0  0  0  0  0  0  0  0  0  0  0  0
   -1.5000    0.0000    0.0000 C   0  0  0  0  0  0  0  0  0  0  0  0
   -0.7500    1.2990    0.0000 C   0  0  0  0  0  0  0  0  0  0  0  0
    0.7500    1.2990    0.0000 C   0  0  0  0  0  0  0  0  0  0  0  0
    7.5000   -0.0000    0.0000 O   0  0  0  0  0  0  0  0  0  0  0  0
  1  2  1  0
  2  3  1  0
  3  4  1  0
  4  5  1  0
  5  6  1  0
  6  7  2  0
  6  8  1  0
  4  9  1  0
  9 10  1  0
 10 11  2  0
 11 12  1  0
 12 13  2  0
 13 14  1  0
 14 15  2  0
  2 16  2  0
 15 10  1  0
M  END
>  <Name>  (15) 
N-Benzyliminodiacetic_acid

>  <logK_Lu_z=3.0_T=25_I=0.1>  (15) 
6.7

$$$$

     RDKit          2D

 13 12  0  0  0  0  0  0  0  0999 V2000
    2.5981   -0.0000    0.0000 O   0  0  0  0  0  0  0  0  0  0  0  0
    1.2990    0.7500    0.0000 C   0  0  0  0  0  0  0  0  0  0  0  0
    0.0000    0.0000    0.0000 C   0  0  0  0  0  0  0  0  0  0  0  0
   -1.2990    0.7500    0.0000 N   0  0  0  0  0  0  0  0  0  0  0  0
   -2.5981    0.0000    0.0000 C   0  0  0  0  0  0  0  0  0  0  0  0
   -2.5981   -1.5000    0.0000 C   0  0  0  0  0  0  0  0  0  0  0  0
   -3.8971   -2.2500    0.0000 O   0  0  0  0  0  0  0  0  0  0  0  0
   -1.2990   -2.2500    0.0000 O   0  0  0  0  0  0  0  0  0  0  0  0
   -1.2990    2.2500    0.0000 C   0  0  0  0  0  0  0  0  0  0  0  0
   -2.5981    3.0000    0.0000 C   0  0  0  0  0  0  0  0  0  0  0  0
   -2.5981    4.5000    0.0000 O   0  0  0  0  0  0  0  0  0  0  0  0
   -3.8971    2.2500    0.0000 O   0  0  0  0  0  0  0  0  0  0  0  0
    1.2990    2.2500    0.0000 O   0  0  0  0  0  0  0  0  0  0  0  0
  1  2  1  0
  2  3  1  0
  3  4  1  0
  4  5  1  0
  5  6  1  0
  6  7  1  0
  6  8  2  0
  4  9  1  0
  9 10  1  0
 10 11  1  0
 10 12  2  0
  2 13  2  0
M  END
>  <Name>  (16) 
Nitrilotriacetic_acid_(NTA)

>  <logK_Lu_z=3.0_T=25_I=0.1>  (16) 
12.32

>  <logK_Lu_z=3.0_T=25_I=0.5>  (16) 
12.12

$$$$

     RDKit          2D

 19 18  0  0  0  0  0  0  0  0999 V2000
   10.3923   -0.0000    0.0000 O   0  0  0  0  0  0  0  0  0  0  0  0
    9.0933    0.7500    0.0000 C   0  0  0  0  0  0  0  0  0  0  0  0
    7.7942   -0.0000    0.0000 C   0  0  0  0  0  0  0  0  0  0  0  0
    6.4952    0.7500    0.0000 C   0  0  0  0  0  0  0  0  0  0  0  0
    5.1962   -0.0000    0.0000 C   0  0  0  0  0  0  0  0  0  0  0  0
    3.8971    0.7500    0.0000 C   0  0  0  0  0  0  0  0  0  0  0  0
    2.5981   -0.0000    0.0000 C   0  0  0  0  0  0  0  0  0  0  0  0
    1.2990    0.7500    0.0000 C   0  0  0  0  0  0  0  0  0  0  0  0
    0.0000    0.0000    0.0000 C   0  0  0  0  0  0  0  0  0  0  0  0
    7.7942   -1.5000    0.0000 N   0  0  0  0  0  0  0  0  0  0  0  0
    9.0933   -2.2500    0.0000 C   0  0  0  0  0  0  0  0  0  0  0  0
    9.0933   -3.7500    0.0000 C   0  0  0  0  0  0  0  0  0  0  0  0
    8.3073   -4.3423    0.0000 O   0  0  0  0  0  0  0  0  0  0  0  0
   10.3923   -4.5000    0.0000 O   0  0  0  0  0  0  0  0  0  0  0  0
    6.4952   -2.2500    0.0000 C   0  0  0  0  0  0  0  0  0  0  0  0
    6.4952   -3.7500    0.0000 C   0  0  0  0  0  0  0  0  0  0  0  0
    7.2812   -4.3423    0.0000 O   0  0  0  0  0  0  0  0  0  0  0  0
    5.1962   -4.5000    0.0000 O   0  0  0  0  0  0  0  0  0  0  0  0
    9.0933    2.2500    0.0000 O   0  0  0  0  0  0  0  0  0  0  0  0
  1  2  1  0
  2  3  1  0
  3  4  1  0
  4  5  1  0
  5  6  1  0
  6  7  1  0
  7  8  1  0
  8  9  1  0
  3 10  1  0
 10 11  1  0
 11 12  1  0
 12 13  2  0
 12 14  1  0
 10 15  1  0
 15 16  1  0
 16 17  2  0
 16 18  1  0
  2 19  2  0
M  END
>  <Name>  (17) 
DL-2-Hexylnitrilotriacetic_acid

>  <logK_Lu_z=3.0_T=20_I=0.1>  (17) 
12.17

$$$$

     RDKit          2D

 14 13  0  0  0  0  0  0  0  0999 V2000
    1.2990    2.2500    0.0000 O   0  0  0  0  0  0  0  0  0  0  0  0
    1.2990    0.7500    0.0000 C   0  0  0  0  0  0  0  0  0  0  0  0
    0.0000    0.0000    0.0000 C   0  0  0  0  0  0  0  0  0  0  0  0
   -1.2990    0.7500    0.0000 O   0  0  0  0  0  0  0  0  0  0  0  0
    2.5981   -0.0000    0.0000 C   0  0  0  0  0  0  0  0  0  0  0  0
    3.8971    0.7500    0.0000 N   0  0  0  0  0  0  0  0  0  0  0  0
    5.1962   -0.0000    0.0000 C   0  0  0  0  0  0  0  0  0  0  0  0
    5.1962   -1.5000    0.0000 C   0  0  0  0  0  0  0  0  0  0  0  0
    3.8971   -2.2500    0.0000 O   0  0  0  0  0  0  0  0  0  0  0  0
    6.4952   -2.2500    0.0000 O   0  0  0  0  0  0  0  0  0  0  0  0
    3.8971    2.2500    0.0000 C   0  0  0  0  0  0  0  0  0  0  0  0
    5.1962    3.0000    0.0000 C   0  0  0  0  0  0  0  0  0  0  0  0
    5.1962    4.5000    0.0000 O   0  0  0  0  0  0  0  0  0  0  0  0
    6.4952    2.2500    0.0000 O   0  0  0  0  0  0  0  0  0  0  0  0
  1  2  1  0
  2  3  1  0
  3  4  1  0
  2  5  1  0
  5  6  1  0
  6  7  1  0
  7  8  1  0
  8  9  2  0
  8 10  1  0
  6 11  1  0
 11 12  1  0
 12 13  2  0
 12 14  1  0
M  END
>  <Name>  (18) 
DL-N-(2,3-Dihydroxypropyl)iminodiacetic_acid

>  <logK_Lu_z=3.0_T=20_I=0.1>  (18) 
9.0

$$$$

     RDKit          2D

 13 12  0  0  0  0  0  0  0  0999 V2000
    1.2990    0.7500    0.0000 O   0  0  0  0  0  0  0  0  0  0  0  0
    0.0000    0.0000    0.0000 C   0  0  0  0  0  0  0  0  0  0  0  0
    2.5981   -0.0000    0.0000 C   0  0  0  0  0  0  0  0  0  0  0  0
    3.8971    0.7500    0.0000 C   0  0  0  0  0  0  0  0  0  0  0  0
    5.1962   -0.0000    0.0000 N   0  0  0  0  0  0  0  0  0  0  0  0
    6.4952    0.7500    0.0000 C   0  0  0  0  0  0  0  0  0  0  0  0
    7.7942   -0.0000    0.0000 C   0  0  0  0  0  0  0  0  0  0  0  0
    7.7942   -1.5000    0.0000 O   0  0  0  0  0  0  0  0  0  0  0  0
    9.0933    0.7500    0.0000 O   0  0  0  0  0  0  0  0  0  0  0  0
    5.1962   -1.5000    0.0000 C   0  0  0  0  0  0  0  0  0  0  0  0
    3.8971   -2.2500    0.0000 C   0  0  0  0  0  0  0  0  0  0  0  0
    2.5981   -1.5000    0.0000 O   0  0  0  0  0  0  0  0  0  0  0  0
    3.8971   -3.7500    0.0000 O   0  0  0  0  0  0  0  0  0  0  0  0
  1  2  1  0
  1  3  1  0
  3  4  1  0
  4  5  1  0
  5  6  1  0
  6  7  1  0
  7  8  2  0
  7  9  1  0
  5 10  1  0
 10 11  1  0
 11 12  2  0
 11 13  1  0
M  END
>  <Name>  (19) 
N-(2-Methoxyethyl)iminodiacetic_acid

>  <logK_Lu_z=3.0_T=25_I=0.1>  (19) 
8.42

$$$$

     RDKit          2D

 13 12  0  0  0  0  0  0  0  0999 V2000
    1.2990    0.7500    0.0000 S   0  0  0  0  0  0  0  0  0  0  0  0
    0.0000    0.0000    0.0000 C   0  0  0  0  0  0  0  0  0  0  0  0
    2.5981   -0.0000    0.0000 C   0  0  0  0  0  0  0  0  0  0  0  0
    3.8971    0.7500    0.0000 C   0  0  0  0  0  0  0  0  0  0  0  0
    5.1962   -0.0000    0.0000 N   0  0  0  0  0  0  0  0  0  0  0  0
    6.4952    0.7500    0.0000 C   0  0  0  0  0  0  0  0  0  0  0  0
    7.7942   -0.0000    0.0000 C   0  0  0  0  0  0  0  0  0  0  0  0
    7.7942   -1.5000    0.0000 O   0  0  0  0  0  0  0  0  0  0  0  0
    9.0933    0.7500    0.0000 O   0  0  0  0  0  0  0  0  0  0  0  0
    5.1962   -1.5000    0.0000 C   0  0  0  0  0  0  0  0  0  0  0  0
    3.8971   -2.2500    0.0000 C   0  0  0  0  0  0  0  0  0  0  0  0
    2.5981   -1.5000    0.0000 O   0  0  0  0  0  0  0  0  0  0  0  0
    3.8971   -3.7500    0.0000 O   0  0  0  0  0  0  0  0  0  0  0  0
  1  2  1  0
  1  3  1  0
  3  4  1  0
  4  5  1  0
  5  6  1  0
  6  7  1  0
  7  8  2  0
  7  9  1  0
  5 10  1  0
 10 11  1  0
 11 12  2  0
 11 13  1  0
M  END
>  <Name>  (20) 
N-[2-(Methylthio)ethyl]iminodiacetic_acid

>  <logK_Lu_z=3.0_T=25_I=0.1>  (20) 
6.71

$$$$

     RDKit          2D

 19 18  0  0  0  0  0  0  0  0999 V2000
   -1.2990    0.7500    0.0000 O   0  0  0  0  0  0  0  0  0  0  0  0
    0.0000    0.0000    0.0000 C   0  0  0  0  0  0  0  0  0  0  0  0
    1.2990    0.7500    0.0000 C   0  0  0  0  0  0  0  0  0  0  0  0
    2.5981   -0.0000    0.0000 N   0  0  0  0  0  0  0  0  0  0  0  0
    3.8971    0.7500    0.0000 C   0  0  0  0  0  0  0  0  0  0  0  0
    5.1962   -0.0000    0.0000 C   0  0  0  0  0  0  0  0  0  0  0  0
    6.4952    0.7500    0.0000 N   0  0  0  0  0  0  0  0  0  0  0  0
    7.7942   -0.0000    0.0000 C   0  0  0  0  0  0  0  0  0  0  0  0
    9.0933    0.7500    0.0000 C   0  0  0  0  0  0  0  0  0  0  0  0
   10.3923   -0.0000    0.0000 O   0  0  0  0  0  0  0  0  0  0  0  0
    9.0933    2.2500    0.0000 O   0  0  0  0  0  0  0  0  0  0  0  0
    6.4952    2.2500    0.0000 C   0  0  0  0  0  0  0  0  0  0  0  0
    5.1962    3.0000    0.0000 C   0  0  0  0  0  0  0  0  0  0  0  0
    5.1962    4.5000    0.0000 O   0  0  0  0  0  0  0  0  0  0  0  0
    3.8971    2.2500    0.0000 O   0  0  0  0  0  0  0  0  0  0  0  0
    2.5981   -1.5000    0.0000 C   0  0  0  0  0  0  0  0  0  0  0  0
    3.8971   -2.2500    0.0000 C   0  0  0  0  0  0  0  0  0  0  0  0
    3.8971   -3.7500    0.0000 O   0  0  0  0  0  0  0  0  0  0  0  0
    5.1962   -1.5000    0.0000 O   0  0  0  0  0  0  0  0  0  0  0  0
  1  2  1  0
  2  3  1  0
  3  4  1  0
  4  5  1  0
  5  6  1  0
  6  7  1  0
  7  8  1  0
  8  9  1  0
  9 10  1  0
  9 11  2  0
  7 12  1  0
 12 13  1  0
 13 14  1  0
 13 15  2  0
  4 16  1  0
 16 17  1  0
 17 18  1  0
 17 19  2  0
M  END
>  <Name>  (21) 
N-(2-Hydroxyethyl)ethylenedinitrilotriacetic_acid_(HEDTA)

>  <logK_Lu_z=3.0_T=25_I=0.1>  (21) 
15.93

>  <logK_Lu_z=3.0_T=25_I=0.5>  (21) 
15.32

$$$$

     RDKit          2D

 20 19  0  0  0  0  0  0  0  0999 V2000
   -1.2990    0.7500    0.0000 N   0  0  0  0  0  0  0  0  0  0  0  0
    0.0000    0.0000    0.0000 C   0  0  0  0  0  0  0  0  0  0  0  0
    1.2990    0.7500    0.0000 C   0  0  0  0  0  0  0  0  0  0  0  0
    1.2990    2.2500    0.0000 O   0  0  0  0  0  0  0  0  0  0  0  0
    2.5981   -0.0000    0.0000 O   0  0  0  0  0  0  0  0  0  0  0  0
   -1.2990    2.2500    0.0000 C   0  0  0  0  0  0  0  0  0  0  0  0
   -2.5981    3.0000    0.0000 C   0  0  0  0  0  0  0  0  0  0  0  0
   -3.8971    2.2500    0.0000 O   0  0  0  0  0  0  0  0  0  0  0  0
   -2.5981    4.5000    0.0000 O   0  0  0  0  0  0  0  0  0  0  0  0
   -2.5981    0.0000    0.0000 C   0  0  0  0  0  0  0  0  0  0  0  0
   -3.8971    0.7500    0.0000 C   0  0  0  0  0  0  0  0  0  0  0  0
   -5.1962    0.0000    0.0000 N   0  0  0  0  0  0  0  0  0  0  0  0
   -6.4952    0.7500    0.0000 C   0  0  0  0  0  0  0  0  0  0  0  0
   -7.7942    0.0000    0.0000 C   0  0  0  0  0  0  0  0  0  0  0  0
   -7.7942   -1.5000    0.0000 O   0  0  0  0  0  0  0  0  0  0  0  0
   -9.0933    0.7500    0.0000 O   0  0  0  0  0  0  0  0  0  0  0  0
   -5.1962   -1.5000    0.0000 C   0  0  0  0  0  0  0  0  0  0  0  0
   -3.8971   -2.2500    0.0000 C   0  0  0  0  0  0  0  0  0  0  0  0
   -2.5981   -1.5000    0.0000 O   0  0  0  0  0  0  0  0  0  0  0  0
   -3.8971   -3.7500    0.0000 O   0  0  0  0  0  0  0  0  0  0  0  0
  1  2  1  0
  2  3  1  0
  3  4  2  0
  3  5  1  0
  1  6  1  0
  6  7  1  0
  7  8  2  0
  7  9  1  0
  1 10  1  0
 10 11  1  0
 11 12  1  0
 12 13  1  0
 13 14  1  0
 14 15  2  0
 14 16  1  0
 12 17  1  0
 17 18  1  0
 18 19  2  0
 18 20  1  0
M  END
>  <Name>  (22) 
Ethylenedinitrilotetraacetic_acid_(EDTA)

>  <logK_Lu_z=3.0_T=25_I=0.1>  (22) 
19.74

>  <logK_Lu_z=3.0_T=25_I=0.5>  (22) 
18.19

$$$$

     RDKit          2D

 21 20  0  0  0  0  0  0  0  0999 V2000
    0.0000    0.0000    0.0000 C   0  0  0  0  0  0  0  0  0  0  0  0
    1.2990    0.7500    0.0000 C   0  0  0  0  0  0  0  0  0  0  0  0
    2.5981   -0.0000    0.0000 C   0  0  0  0  0  0  0  0  0  0  0  0
    3.8971    0.7500    0.0000 N   0  0  0  0  0  0  0  0  0  0  0  0
    5.1962   -0.0000    0.0000 C   0  0  0  0  0  0  0  0  0  0  0  0
    5.1962   -1.5000    0.0000 C   0  0  0  0  0  0  0  0  0  0  0  0
    6.4952   -2.2500    0.0000 O   0  0  0  0  0  0  0  0  0  0  0  0
    3.8971   -2.2500    0.0000 O   0  0  0  0  0  0  0  0  0  0  0  0
    3.8971    2.2500    0.0000 C   0  0  0  0  0  0  0  0  0  0  0  0
    5.1962    3.0000    0.0000 C   0  0  0  0  0  0  0  0  0  0  0  0
    5.1962    4.5000    0.0000 O   0  0  0  0  0  0  0  0  0  0  0  0
    6.4952    2.2500    0.0000 O   0  0  0  0  0  0  0  0  0  0  0  0
    1.2990    2.2500    0.0000 N   0  0  0  0  0  0  0  0  0  0  0  0
    2.5981    3.0000    0.0000 C   0  0  0  0  0  0  0  0  0  0  0  0
    2.5981    4.5000    0.0000 C   0  0  0  0  0  0  0  0  0  0  0  0
    3.8971    5.2500    0.0000 O   0  0  0  0  0  0  0  0  0  0  0  0
    1.2990    5.2500    0.0000 O   0  0  0  0  0  0  0  0  0  0  0  0
   -0.0000    3.0000    0.0000 C   0  0  0  0  0  0  0  0  0  0  0  0
   -1.2990    2.2500    0.0000 C   0  0  0  0  0  0  0  0  0  0  0  0
   -2.5981    3.0000    0.0000 O   0  0  0  0  0  0  0  0  0  0  0  0
   -1.2990    0.7500    0.0000 O   0  0  0  0  0  0  0  0  0  0  0  0
  1  2  1  0
  2  3  1  0
  3  4  1  0
  4  5  1  0
  5  6  1  0
  6  7  1  0
  6  8  2  0
  4  9  1  0
  9 10  1  0
 10 11  1  0
 10 12  2  0
  2 13  1  0
 13 14  1  0
 14 15  1  0
 15 16  1  0
 15 17  2  0
 13 18  1  0
 18 19  1  0
 19 20  1  0
 19 21  2  0
M  END
>  <Name>  (23) 
DL-(Methylethylene)dinitrilotetraacetic_acid_(PDTA)

>  <logK_Lu_z=3.0_T=20_I=0.1>  (23) 
20.58

$$$$

     RDKit          2D

 22 21  0  0  0  0  0  0  0  0999 V2000
    0.0000    0.0000    0.0000 C   0  0  0  0  0  0  0  0  0  0  0  0
    1.2990    0.7500    0.0000 C   0  0  0  0  0  0  0  0  0  0  0  0
    2.0490   -0.5490    0.0000 C   0  0  0  0  0  0  0  0  0  0  0  0
    1.2990   -1.8481    0.0000 N   0  0  0  0  0  0  0  0  0  0  0  0
   -0.2010   -1.8481    0.0000 C   0  0  0  0  0  0  0  0  0  0  0  0
   -0.9510   -3.1471    0.0000 C   0  0  0  0  0  0  0  0  0  0  0  0
   -0.2010   -4.4462    0.0000 O   0  0  0  0  0  0  0  0  0  0  0  0
   -2.4510   -3.1471    0.0000 O   0  0  0  0  0  0  0  0  0  0  0  0
    2.0490   -3.1471    0.0000 C   0  0  0  0  0  0  0  0  0  0  0  0
    3.5490   -3.1471    0.0000 C   0  0  0  0  0  0  0  0  0  0  0  0
    4.2990   -4.4462    0.0000 O   0  0  0  0  0  0  0  0  0  0  0  0
    4.2990   -1.8481    0.0000 O   0  0  0  0  0  0  0  0  0  0  0  0
    2.5981    1.5000    0.0000 C   0  0  0  0  0  0  0  0  0  0  0  0
    0.5490    2.0490    0.0000 N   0  0  0  0  0  0  0  0  0  0  0  0
    1.2990    3.3481    0.0000 C   0  0  0  0  0  0  0  0  0  0  0  0
    0.5490    4.6471    0.0000 C   0  0  0  0  0  0  0  0  0  0  0  0
   -0.9510    4.6471    0.0000 O   0  0  0  0  0  0  0  0  0  0  0  0
    1.2990    5.9462    0.0000 O   0  0  0  0  0  0  0  0  0  0  0  0
   -0.9510    2.0490    0.0000 C   0  0  0  0  0  0  0  0  0  0  0  0
   -1.7010    0.7500    0.0000 C   0  0  0  0  0  0  0  0  0  0  0  0
   -0.9510   -0.5490    0.0000 O   0  0  0  0  0  0  0  0  0  0  0  0
   -3.2010    0.7500    0.0000 O   0  0  0  0  0  0  0  0  0  0  0  0
  1  2  1  0
  2  3  1  0
  3  4  1  0
  4  5  1  0
  5  6  1  0
  6  7  2  0
  6  8  1  0
  4  9  1  0
  9 10  1  0
 10 11  2  0
 10 12  1  0
  2 13  1  0
  2 14  1  0
 14 15  1  0
 15 16  1  0
 16 17  2  0
 16 18  1  0
 14 19  1  0
 19 20  1  0
 20 21  2  0
 20 22  1  0
M  END
>  <Name>  (24) 
(1,1-Dimethylethylene)dinitrilotetraacetic_acid

>  <logK_Lu_z=3.0_T=20_I=0.1>  (24) 
18.18

$$$$

     RDKit          2D

 22 21  0  0  0  0  0  0  0  0999 V2000
    0.0000    0.0000    0.0000 C   0  0  0  0  0  0  0  0  0  0  0  0
    1.2990    0.7500    0.0000 C   0  0  0  0  0  0  0  0  0  0  0  0
    1.2990    2.2500    0.0000 N   0  0  0  0  0  0  0  0  0  0  0  0
    2.5981    3.0000    0.0000 C   0  0  0  0  0  0  0  0  0  0  0  0
    2.5981    4.5000    0.0000 C   0  0  0  0  0  0  0  0  0  0  0  0
    3.8971    5.2500    0.0000 O   0  0  0  0  0  0  0  0  0  0  0  0
    1.2990    5.2500    0.0000 O   0  0  0  0  0  0  0  0  0  0  0  0
   -0.0000    3.0000    0.0000 C   0  0  0  0  0  0  0  0  0  0  0  0
   -1.2990    2.2500    0.0000 C   0  0  0  0  0  0  0  0  0  0  0  0
   -2.5981    3.0000    0.0000 O   0  0  0  0  0  0  0  0  0  0  0  0
   -1.2990    0.7500    0.0000 O   0  0  0  0  0  0  0  0  0  0  0  0
    2.5981   -0.0000    0.0000 C   0  0  0  0  0  0  0  0  0  0  0  0
    2.5981   -1.5000    0.0000 N   0  0  0  0  0  0  0  0  0  0  0  0
    3.8971   -2.2500    0.0000 C   0  0  0  0  0  0  0  0  0  0  0  0
    5.1962   -1.5000    0.0000 C   0  0  0  0  0  0  0  0  0  0  0  0
    6.4952   -2.2500    0.0000 O   0  0  0  0  0  0  0  0  0  0  0  0
    5.1962    0.0000    0.0000 O   0  0  0  0  0  0  0  0  0  0  0  0
    1.2990   -2.2500    0.0000 C   0  0  0  0  0  0  0  0  0  0  0  0
    1.2990   -3.7500    0.0000 C   0  0  0  0  0  0  0  0  0  0  0  0
   -0.0000   -4.5000    0.0000 O   0  0  0  0  0  0  0  0  0  0  0  0
    2.5981   -4.5000    0.0000 O   0  0  0  0  0  0  0  0  0  0  0  0
    3.8971    0.7500    0.0000 C   0  0  0  0  0  0  0  0  0  0  0  0
  1  2  1  0
  2  3  1  0
  3  4  1  0
  4  5  1  0
  5  6  1  0
  5  7  2  0
  3  8  1  0
  8  9  1  0
  9 10  1  0
  9 11  2  0
  2 12  1  0
 12 13  1  0
 13 14  1  0
 14 15  1  0
 15 16  1  0
 15 17  2  0
 13 18  1  0
 18 19  1  0
 19 20  1  0
 19 21  2  0
 12 22  1  0
M  END
>  <Name>  (25) 
rac-(1,2-Dimethylethylene)dinitrilotetraacetic_acid

>  <logK_Lu_z=3.0_T=20_I=0.1>  (25) 
20.9

$$$$

     RDKit          2D

 24 24  0  0  0  0  0  0  0  0999 V2000
    3.7500   -3.8971    0.0000 O   0  0  0  0  0  0  0  0  0  0  0  0
    3.0000   -2.5981    0.0000 C   0  0  0  0  0  0  0  0  0  0  0  0
    1.5000   -2.5981    0.0000 O   0  0  0  0  0  0  0  0  0  0  0  0
    3.7500   -1.2990    0.0000 C   0  0  0  0  0  0  0  0  0  0  0  0
    3.0000    0.0000    0.0000 N   0  0  0  0  0  0  0  0  0  0  0  0
    3.7500    1.2990    0.0000 C   0  0  0  0  0  0  0  0  0  0  0  0
    5.2500    1.2990    0.0000 C   0  0  0  0  0  0  0  0  0  0  0  0
    6.0000    2.5981    0.0000 O   0  0  0  0  0  0  0  0  0  0  0  0
    6.0000    0.0000    0.0000 O   0  0  0  0  0  0  0  0  0  0  0  0
    1.5000    0.0000    0.0000 C   0  0  0  0  0  0  0  0  0  0  0  0
    0.7500   -1.2990    0.0000 C   0  0  0  0  0  0  0  0  0  0  0  0
   -0.7500   -1.2990    0.0000 C   0  0  0  0  0  0  0  0  0  0  0  0
   -1.5000    0.0000    0.0000 C   0  0  0  0  0  0  0  0  0  0  0  0
   -0.7500    1.2990    0.0000 C   0  0  0  0  0  0  0  0  0  0  0  0
    0.7500    1.2990    0.0000 C   0  0  0  0  0  0  0  0  0  0  0  0
    1.5000    2.5981    0.0000 N   0  0  0  0  0  0  0  0  0  0  0  0
    0.7500    3.8971    0.0000 C   0  0  0  0  0  0  0  0  0  0  0  0
   -0.7500    3.8971    0.0000 C   0  0  0  0  0  0  0  0  0  0  0  0
   -1.5000    5.1962    0.0000 O   0  0  0  0  0  0  0  0  0  0  0  0
   -1.5000    2.5981    0.0000 O   0  0  0  0  0  0  0  0  0  0  0  0
    3.0000    2.5981    0.0000 C   0  0  0  0  0  0  0  0  0  0  0  0
    3.7500    3.8971    0.0000 C   0  0  0  0  0  0  0  0  0  0  0  0
    5.2500    3.8971    0.0000 O   0  0  0  0  0  0  0  0  0  0  0  0
    3.0000    5.1962    0.0000 O   0  0  0  0  0  0  0  0  0  0  0  0
  1  2  1  0
  2  3  2  0
  2  4  1  0
  4  5  1  0
  5  6  1  0
  6  7  1  0
  7  8  1  0
  7  9  2  0
  5 10  1  0
 10 11  1  0
 11 12  1  0
 12 13  1  0
 13 14  1  0
 14 15  1  0
 15 16  1  0
 16 17  1  0
 17 18  1  0
 18 19  1  0
 18 20  2  0
 16 21  1  0
 21 22  1  0
 22 23  1  0
 22 24  2  0
 15 10  1  0
M  END
>  <Name>  (26) 
trans-1,2-Cyclohexylenedinitrilotetraacetic_acid_(CDTA)

>  <logK_Lu_z=3.0_T=20_I=0.1>  (26) 
22.1

>  <logK_Lu_z=3.0_T=25_I=0.5>  (26) 
20.6

>  <logK_Lu_z=3.0_T=25_I=1.0>  (26) 
21.52

$$$$

     RDKit          2D

 21 20  0  0  0  0  0  0  0  0999 V2000
    1.2990    0.7500    0.0000 C   0  0  0  0  0  0  0  0  0  0  0  0
    2.5981   -0.0000    0.0000 O   0  0  0  0  0  0  0  0  0  0  0  0
    1.2990    2.2500    0.0000 O   0  0  0  0  0  0  0  0  0  0  0  0
    0.0000    0.0000    0.0000 C   0  0  0  0  0  0  0  0  0  0  0  0
   -1.2990    0.7500    0.0000 N   0  0  0  0  0  0  0  0  0  0  0  0
   -2.5981    0.0000    0.0000 C   0  0  0  0  0  0  0  0  0  0  0  0
   -3.8971    0.7500    0.0000 C   0  0  0  0  0  0  0  0  0  0  0  0
   -5.1962    0.0000    0.0000 C   0  0  0  0  0  0  0  0  0  0  0  0
   -6.4952    0.7500    0.0000 N   0  0  0  0  0  0  0  0  0  0  0  0
   -7.7942    0.0000    0.0000 C   0  0  0  0  0  0  0  0  0  0  0  0
   -7.7942   -1.5000    0.0000 C   0  0  0  0  0  0  0  0  0  0  0  0
   -9.0933   -2.2500    0.0000 O   0  0  0  0  0  0  0  0  0  0  0  0
   -6.4952   -2.2500    0.0000 O   0  0  0  0  0  0  0  0  0  0  0  0
   -6.4952    2.2500    0.0000 C   0  0  0  0  0  0  0  0  0  0  0  0
   -7.7942    3.0000    0.0000 C   0  0  0  0  0  0  0  0  0  0  0  0
   -7.7942    4.5000    0.0000 O   0  0  0  0  0  0  0  0  0  0  0  0
   -9.0933    2.2500    0.0000 O   0  0  0  0  0  0  0  0  0  0  0  0
   -1.2990    2.2500    0.0000 C   0  0  0  0  0  0  0  0  0  0  0  0
   -2.5981    3.0000    0.0000 C   0  0  0  0  0  0  0  0  0  0  0  0
   -2.5981    4.5000    0.0000 O   0  0  0  0  0  0  0  0  0  0  0  0
   -3.8971    2.2500    0.0000 O   0  0  0  0  0  0  0  0  0  0  0  0
  1  2  1  0
  1  3  2  0
  1  4  1  0
  4  5  1  0
  5  6  1  0
  6  7  1  0
  7  8  1  0
  8  9  1  0
  9 10  1  0
 10 11  1  0
 11 12  1  0
 11 13  2  0
  9 14  1  0
 14 15  1  0
 15 16  1  0
 15 17  2  0
  5 18  1  0
 18 19  1  0
 19 20  1  0
 19 21  2  0
M  END
>  <Name>  (27) 
Trimethylenedinitrilotetraacetic_acid_(TMDTA)

>  <logK_Lu_z=3.0_T=25_I=0.1>  (27) 
16.03

>  <logK_Lu_z=3.0_T=20_I=0.1>  (27) 
15.9

$$$$

     RDKit          2D

 22 21  0  0  0  0  0  0  0  0999 V2000
    2.5981   -0.0000    0.0000 O   0  0  0  0  0  0  0  0  0  0  0  0
    1.2990    0.7500    0.0000 C   0  0  0  0  0  0  0  0  0  0  0  0
    0.0000    0.0000    0.0000 C   0  0  0  0  0  0  0  0  0  0  0  0
   -1.2990    0.7500    0.0000 N   0  0  0  0  0  0  0  0  0  0  0  0
   -1.2990    2.2500    0.0000 C   0  0  0  0  0  0  0  0  0  0  0  0
   -2.5981    3.0000    0.0000 C   0  0  0  0  0  0  0  0  0  0  0  0
   -3.8971    2.2500    0.0000 O   0  0  0  0  0  0  0  0  0  0  0  0
   -2.5981    4.5000    0.0000 O   0  0  0  0  0  0  0  0  0  0  0  0
   -2.5981    0.0000    0.0000 C   0  0  0  0  0  0  0  0  0  0  0  0
   -3.8971    0.7500    0.0000 C   0  0  0  0  0  0  0  0  0  0  0  0
   -5.1962    0.0000    0.0000 C   0  0  0  0  0  0  0  0  0  0  0  0
   -6.4952    0.7500    0.0000 C   0  0  0  0  0  0  0  0  0  0  0  0
   -7.7942    0.0000    0.0000 N   0  0  0  0  0  0  0  0  0  0  0  0
   -9.0933    0.7500    0.0000 C   0  0  0  0  0  0  0  0  0  0  0  0
  -10.3923    0.0000    0.0000 C   0  0  0  0  0  0  0  0  0  0  0  0
  -10.3923   -1.5000    0.0000 O   0  0  0  0  0  0  0  0  0  0  0  0
  -11.6913    0.7500    0.0000 O   0  0  0  0  0  0  0  0  0  0  0  0
   -7.7942   -1.5000    0.0000 C   0  0  0  0  0  0  0  0  0  0  0  0
   -6.4952   -2.2500    0.0000 C   0  0  0  0  0  0  0  0  0  0  0  0
   -5.1962   -1.5000    0.0000 O   0  0  0  0  0  0  0  0  0  0  0  0
   -6.4952   -3.7500    0.0000 O   0  0  0  0  0  0  0  0  0  0  0  0
    1.2990    2.2500    0.0000 O   0  0  0  0  0  0  0  0  0  0  0  0
  1  2  1  0
  2  3  1  0
  3  4  1  0
  4  5  1  0
  5  6  1  0
  6  7  2  0
  6  8  1  0
  4  9  1  0
  9 10  1  0
 10 11  1  0
 11 12  1  0
 12 13  1  0
 13 14  1  0
 14 15  1  0
 15 16  2  0
 15 17  1  0
 13 18  1  0
 18 19  1  0
 19 20  2  0
 19 21  1  0
  2 22  2  0
M  END
>  <Name>  (28) 
Tetramethylenedinitrilotetraacetic_acid

>  <logK_Lu_z=3.0_T=25_I=0.5>  (28) 
11.4

$$$$

     RDKit          2D

 23 22  0  0  0  0  0  0  0  0999 V2000
    2.5981   -0.0000    0.0000 O   0  0  0  0  0  0  0  0  0  0  0  0
    1.2990    0.7500    0.0000 C   0  0  0  0  0  0  0  0  0  0  0  0
    0.0000    0.0000    0.0000 C   0  0  0  0  0  0  0  0  0  0  0  0
   -1.2990    0.7500    0.0000 N   0  0  0  0  0  0  0  0  0  0  0  0
   -1.2990    2.2500    0.0000 C   0  0  0  0  0  0  0  0  0  0  0  0
   -2.5981    3.0000    0.0000 C   0  0  0  0  0  0  0  0  0  0  0  0
   -3.8971    2.2500    0.0000 O   0  0  0  0  0  0  0  0  0  0  0  0
   -2.5981    4.5000    0.0000 O   0  0  0  0  0  0  0  0  0  0  0  0
   -2.5981    0.0000    0.0000 C   0  0  0  0  0  0  0  0  0  0  0  0
   -3.8971    0.7500    0.0000 C   0  0  0  0  0  0  0  0  0  0  0  0
   -5.1962    0.0000    0.0000 C   0  0  0  0  0  0  0  0  0  0  0  0
   -6.4952    0.7500    0.0000 C   0  0  0  0  0  0  0  0  0  0  0  0
   -7.7942    0.0000    0.0000 C   0  0  0  0  0  0  0  0  0  0  0  0
   -9.0933    0.7500    0.0000 N   0  0  0  0  0  0  0  0  0  0  0  0
  -10.3923    0.0000    0.0000 C   0  0  0  0  0  0  0  0  0  0  0  0
  -11.6913    0.7500    0.0000 C   0  0  0  0  0  0  0  0  0  0  0  0
  -11.6913    2.2500    0.0000 O   0  0  0  0  0  0  0  0  0  0  0  0
  -12.9904    0.0000    0.0000 O   0  0  0  0  0  0  0  0  0  0  0  0
   -9.0933    2.2500    0.0000 C   0  0  0  0  0  0  0  0  0  0  0  0
   -7.7942    3.0000    0.0000 C   0  0  0  0  0  0  0  0  0  0  0  0
   -6.4952    2.2500    0.0000 O   0  0  0  0  0  0  0  0  0  0  0  0
   -7.7942    4.5000    0.0000 O   0  0  0  0  0  0  0  0  0  0  0  0
    1.2990    2.2500    0.0000 O   0  0  0  0  0  0  0  0  0  0  0  0
  1  2  1  0
  2  3  1  0
  3  4  1  0
  4  5  1  0
  5  6  1  0
  6  7  2  0
  6  8  1  0
  4  9  1  0
  9 10  1  0
 10 11  1  0
 11 12  1  0
 12 13  1  0
 13 14  1  0
 14 15  1  0
 15 16  1  0
 16 17  2  0
 16 18  1  0
 14 19  1  0
 19 20  1  0
 20 21  2  0
 20 22  1  0
  2 23  2  0
M  END
>  <Name>  (29) 
Pentamethylenedinitrilotetraacetic_acid

>  <logK_Lu_z=3.0_T=25_I=0.1>  (29) 
11.6

$$$$

     RDKit          2D

 24 23  0  0  0  0  0  0  0  0999 V2000
    0.0000    0.0000    0.0000 C   0  0  0  0  0  0  0  0  0  0  0  0
   -1.2990    0.7500    0.0000 C   0  0  0  0  0  0  0  0  0  0  0  0
   -2.5981    0.0000    0.0000 C   0  0  0  0  0  0  0  0  0  0  0  0
   -3.8971    0.7500    0.0000 N   0  0  0  0  0  0  0  0  0  0  0  0
   -5.1962    0.0000    0.0000 C   0  0  0  0  0  0  0  0  0  0  0  0
   -6.4952    0.7500    0.0000 C   0  0  0  0  0  0  0  0  0  0  0  0
   -7.7942    0.0000    0.0000 O   0  0  0  0  0  0  0  0  0  0  0  0
   -6.4952    2.2500    0.0000 O   0  0  0  0  0  0  0  0  0  0  0  0
   -3.8971    2.2500    0.0000 C   0  0  0  0  0  0  0  0  0  0  0  0
   -2.5981    3.0000    0.0000 C   0  0  0  0  0  0  0  0  0  0  0  0
   -1.2990    2.2500    0.0000 O   0  0  0  0  0  0  0  0  0  0  0  0
   -2.5981    4.5000    0.0000 O   0  0  0  0  0  0  0  0  0  0  0  0
    1.2990    0.7500    0.0000 C   0  0  0  0  0  0  0  0  0  0  0  0
    2.5981   -0.0000    0.0000 C   0  0  0  0  0  0  0  0  0  0  0  0
    3.8971    0.7500    0.0000 C   0  0  0  0  0  0  0  0  0  0  0  0
    5.1962   -0.0000    0.0000 N   0  0  0  0  0  0  0  0  0  0  0  0
    6.4952    0.7500    0.0000 C   0  0  0  0  0  0  0  0  0  0  0  0
    7.7942   -0.0000    0.0000 C   0  0  0  0  0  0  0  0  0  0  0  0
    9.0933    0.7500    0.0000 O   0  0  0  0  0  0  0  0  0  0  0  0
    7.7942   -1.5000    0.0000 O   0  0  0  0  0  0  0  0  0  0  0  0
    5.1962   -1.5000    0.0000 C   0  0  0  0  0  0  0  0  0  0  0  0
    3.8971   -2.2500    0.0000 C   0  0  0  0  0  0  0  0  0  0  0  0
    3.8971   -3.7500    0.0000 O   0  0  0  0  0  0  0  0  0  0  0  0
    2.5981   -1.5000    0.0000 O   0  0  0  0  0  0  0  0  0  0  0  0
  1  2  1  0
  2  3  1  0
  3  4  1  0
  4  5  1  0
  5  6  1  0
  6  7  1  0
  6  8  2  0
  4  9  1  0
  9 10  1  0
 10 11  1  0
 10 12  2  0
  1 13  1  0
 13 14  1  0
 14 15  1  0
 15 16  1  0
 16 17  1  0
 17 18  1  0
 18 19  1  0
 18 20  2  0
 16 21  1  0
 21 22  1  0
 22 23  1  0
 22 24  2  0
M  END
>  <Name>  (30) 
Hexamethylenedinitrilotetraacetic_acid

>  <logK_Lu_z=3.0_T=25_I=1.0>  (30) 
10.51

$$$$

     RDKit          2D

 23 22  0  0  0  0  0  0  0  0999 V2000
    1.2990    2.2500    0.0000 C   0  0  0  0  0  0  0  0  0  0  0  0
    1.2990    0.7500    0.0000 C   0  0  0  0  0  0  0  0  0  0  0  0
    2.5981   -0.0000    0.0000 C   0  0  0  0  0  0  0  0  0  0  0  0
    3.8971    0.7500    0.0000 C   0  0  0  0  0  0  0  0  0  0  0  0
    5.1962   -0.0000    0.0000 C   0  0  0  0  0  0  0  0  0  0  0  0
    3.8971    2.2500    0.0000 N   0  0  0  0  0  0  0  0  0  0  0  0
    2.5981    3.0000    0.0000 C   0  0  0  0  0  0  0  0  0  0  0  0
    2.5981    4.5000    0.0000 C   0  0  0  0  0  0  0  0  0  0  0  0
    3.8971    5.2500    0.0000 O   0  0  0  0  0  0  0  0  0  0  0  0
    1.2990    5.2500    0.0000 O   0  0  0  0  0  0  0  0  0  0  0  0
    5.1962    3.0000    0.0000 C   0  0  0  0  0  0  0  0  0  0  0  0
    6.4952    2.2500    0.0000 C   0  0  0  0  0  0  0  0  0  0  0  0
    6.4952    0.7500    0.0000 O   0  0  0  0  0  0  0  0  0  0  0  0
    7.7942    3.0000    0.0000 O   0  0  0  0  0  0  0  0  0  0  0  0
   -0.0000   -0.0000    0.0000 N   0  0  0  0  0  0  0  0  0  0  0  0
   -1.2990    0.7500    0.0000 C   0  0  0  0  0  0  0  0  0  0  0  0
   -1.2990    2.2500    0.0000 C   0  0  0  0  0  0  0  0  0  0  0  0
   -0.0000    3.0000    0.0000 O   0  0  0  0  0  0  0  0  0  0  0  0
   -2.5981    3.0000    0.0000 O   0  0  0  0  0  0  0  0  0  0  0  0
    0.0000   -1.5000    0.0000 C   0  0  0  0  0  0  0  0  0  0  0  0
   -1.2990   -2.2500    0.0000 C   0  0  0  0  0  0  0  0  0  0  0  0
   -2.5981   -1.5000    0.0000 O   0  0  0  0  0  0  0  0  0  0  0  0
   -1.2990   -3.7500    0.0000 O   0  0  0  0  0  0  0  0  0  0  0  0
  1  2  1  0
  2  3  1  0
  3  4  1  0
  4  5  1  0
  4  6  1  0
  6  7  1  0
  7  8  1  0
  8  9  2  0
  8 10  1  0
  6 11  1  0
 11 12  1  0
 12 13  2  0
 12 14  1  0
  2 15  1  0
 15 16  1  0
 16 17  1  0
 17 18  2  0
 17 19  1  0
 15 20  1  0
 20 21  1  0
 21 22  2  0
 21 23  1  0
M  END
>  <Name>  (31) 
rac-(1,3-Dimethyltrimethylene)dinitrilotetraacetic_acid

>  <logK_Lu_z=3.0_T=20_I=0.1>  (31) 
14.01

$$$$

     RDKit          2D

 22 21  0  0  0  0  0  0  0  0999 V2000
   -0.0000   -1.5000    0.0000 C   0  0  0  0  0  0  0  0  0  0  0  0
    1.2990   -2.2500    0.0000 O   0  0  0  0  0  0  0  0  0  0  0  0
   -1.2990   -2.2500    0.0000 O   0  0  0  0  0  0  0  0  0  0  0  0
    0.0000    0.0000    0.0000 C   0  0  0  0  0  0  0  0  0  0  0  0
   -1.2990    0.7500    0.0000 N   0  0  0  0  0  0  0  0  0  0  0  0
   -2.5981    0.0000    0.0000 C   0  0  0  0  0  0  0  0  0  0  0  0
   -3.8971    0.7500    0.0000 C   0  0  0  0  0  0  0  0  0  0  0  0
   -3.8971    2.2500    0.0000 O   0  0  0  0  0  0  0  0  0  0  0  0
   -5.1962    0.0000    0.0000 C   0  0  0  0  0  0  0  0  0  0  0  0
   -6.4952    0.7500    0.0000 N   0  0  0  0  0  0  0  0  0  0  0  0
   -7.7942    0.0000    0.0000 C   0  0  0  0  0  0  0  0  0  0  0  0
   -7.7942   -1.5000    0.0000 C   0  0  0  0  0  0  0  0  0  0  0  0
   -9.0933   -2.2500    0.0000 O   0  0  0  0  0  0  0  0  0  0  0  0
   -6.4952   -2.2500    0.0000 O   0  0  0  0  0  0  0  0  0  0  0  0
   -6.4952    2.2500    0.0000 C   0  0  0  0  0  0  0  0  0  0  0  0
   -7.7942    3.0000    0.0000 C   0  0  0  0  0  0  0  0  0  0  0  0
   -7.7942    4.5000    0.0000 O   0  0  0  0  0  0  0  0  0  0  0  0
   -9.0933    2.2500    0.0000 O   0  0  0  0  0  0  0  0  0  0  0  0
   -1.2990    2.2500    0.0000 C   0  0  0  0  0  0  0  0  0  0  0  0
    0.0000    3.0000    0.0000 C   0  0  0  0  0  0  0  0  0  0  0  0
    0.0000    4.5000    0.0000 O   0  0  0  0  0  0  0  0  0  0  0  0
    1.2990    2.2500    0.0000 O   0  0  0  0  0  0  0  0  0  0  0  0
  1  2  1  0
  1  3  2  0
  1  4  1  0
  4  5  1  0
  5  6  1  0
  6  7  1  0
  7  8  1  0
  7  9  1  0
  9 10  1  0
 10 11  1  0
 11 12  1  0
 12 13  1  0
 12 14  2  0
 10 15  1  0
 15 16  1  0
 16 17  1  0
 16 18  2  0
  5 19  1  0
 19 20  1  0
 20 21  1  0
 20 22  2  0
M  END
>  <Name>  (32) 
(2-Hydroxytrimethylene)dinitrilotetraacetic_acid

>  <logK_Lu_z=3.0_T=25_I=0.1>  (32) 
15.87

$$$$

     RDKit          2D

 25 24  0  0  0  0  0  0  0  0999 V2000
   -1.2990    0.7500    0.0000 O   0  0  0  0  0  0  0  0  0  0  0  0
    0.0000    0.0000    0.0000 C   0  0  0  0  0  0  0  0  0  0  0  0
    1.2990    0.7500    0.0000 C   0  0  0  0  0  0  0  0  0  0  0  0
    2.5981   -0.0000    0.0000 C   0  0  0  0  0  0  0  0  0  0  0  0
    3.8971    0.7500    0.0000 N   0  0  0  0  0  0  0  0  0  0  0  0
    5.1962   -0.0000    0.0000 C   0  0  0  0  0  0  0  0  0  0  0  0
    6.4952    0.7500    0.0000 C   0  0  0  0  0  0  0  0  0  0  0  0
    6.4952    2.2500    0.0000 O   0  0  0  0  0  0  0  0  0  0  0  0
    7.7942   -0.0000    0.0000 O   0  0  0  0  0  0  0  0  0  0  0  0
    3.8971    2.2500    0.0000 C   0  0  0  0  0  0  0  0  0  0  0  0
    2.5981    3.0000    0.0000 C   0  0  0  0  0  0  0  0  0  0  0  0
    2.5981    4.5000    0.0000 O   0  0  0  0  0  0  0  0  0  0  0  0
    1.2990    2.2500    0.0000 O   0  0  0  0  0  0  0  0  0  0  0  0
   -2.5981    0.0000    0.0000 C   0  0  0  0  0  0  0  0  0  0  0  0
   -3.8971    0.7500    0.0000 C   0  0  0  0  0  0  0  0  0  0  0  0
   -5.1962    0.0000    0.0000 C   0  0  0  0  0  0  0  0  0  0  0  0
   -6.4952    0.7500    0.0000 N   0  0  0  0  0  0  0  0  0  0  0  0
   -7.7942    0.0000    0.0000 C   0  0  0  0  0  0  0  0  0  0  0  0
   -9.0933    0.7500    0.0000 C   0  0  0  0  0  0  0  0  0  0  0  0
   -9.0933    2.2500    0.0000 O   0  0  0  0  0  0  0  0  0  0  0  0
  -10.3923    0.0000    0.0000 O   0  0  0  0  0  0  0  0  0  0  0  0
   -6.4952    2.2500    0.0000 C   0  0  0  0  0  0  0  0  0  0  0  0
   -5.1962    3.0000    0.0000 C   0  0  0  0  0  0  0  0  0  0  0  0
   -5.1962    4.5000    0.0000 O   0  0  0  0  0  0  0  0  0  0  0  0
   -3.8971    2.2500    0.0000 O   0  0  0  0  0  0  0  0  0  0  0  0
  1  2  1  0
  2  3  1  0
  3  4  1  0
  4  5  1  0
  5  6  1  0
  6  7  1  0
  7  8  2  0
  7  9  1  0
  5 10  1  0
 10 11  1  0
 11 12  2  0
 11 13  1  0
  1 14  1  0
 14 15  1  0
 15 16  1  0
 16 17  1  0
 17 18  1  0
 18 19  1  0
 19 20  2  0
 19 21  1  0
 17 22  1  0
 22 23  1  0
 23 24  2  0
 23 25  1  0
M  END
>  <Name>  (33) 
Oxybis(trimethylenenitrilo)tetraacetic_acid

>  <logK_Lu_z=3.0_T=25_I=0.1>  (33) 
12.14

$$$$

     RDKit          2D

 26 25  0  0  0  0  0  0  0  0999 V2000
    2.5981   -0.0000    0.0000 O   0  0  0  0  0  0  0  0  0  0  0  0
    1.2990    0.7500    0.0000 C   0  0  0  0  0  0  0  0  0  0  0  0
    0.0000    0.0000    0.0000 C   0  0  0  0  0  0  0  0  0  0  0  0
   -1.2990    0.7500    0.0000 N   0  0  0  0  0  0  0  0  0  0  0  0
   -1.2990    2.2500    0.0000 C   0  0  0  0  0  0  0  0  0  0  0  0
   -2.5981    3.0000    0.0000 C   0  0  0  0  0  0  0  0  0  0  0  0
   -3.8971    2.2500    0.0000 O   0  0  0  0  0  0  0  0  0  0  0  0
   -2.5981    4.5000    0.0000 O   0  0  0  0  0  0  0  0  0  0  0  0
   -2.5981    0.0000    0.0000 C   0  0  0  0  0  0  0  0  0  0  0  0
   -3.8971    0.7500    0.0000 C   0  0  0  0  0  0  0  0  0  0  0  0
   -5.1962    0.0000    0.0000 O   0  0  0  0  0  0  0  0  0  0  0  0
   -6.4952    0.7500    0.0000 C   0  0  0  0  0  0  0  0  0  0  0  0
   -7.7942    0.0000    0.0000 C   0  0  0  0  0  0  0  0  0  0  0  0
   -9.0933    0.7500    0.0000 O   0  0  0  0  0  0  0  0  0  0  0  0
  -10.3923    0.0000    0.0000 C   0  0  0  0  0  0  0  0  0  0  0  0
  -11.6913    0.7500    0.0000 C   0  0  0  0  0  0  0  0  0  0  0  0
  -12.9904    0.0000    0.0000 N   0  0  0  0  0  0  0  0  0  0  0  0
  -14.2894    0.7500    0.0000 C   0  0  0  0  0  0  0  0  0  0  0  0
  -15.5885    0.0000    0.0000 C   0  0  0  0  0  0  0  0  0  0  0  0
  -15.5885   -1.5000    0.0000 O   0  0  0  0  0  0  0  0  0  0  0  0
  -16.8875    0.7500    0.0000 O   0  0  0  0  0  0  0  0  0  0  0  0
  -12.9904   -1.5000    0.0000 C   0  0  0  0  0  0  0  0  0  0  0  0
  -11.6913   -2.2500    0.0000 C   0  0  0  0  0  0  0  0  0  0  0  0
  -10.3923   -1.5000    0.0000 O   0  0  0  0  0  0  0  0  0  0  0  0
  -11.6913   -3.7500    0.0000 O   0  0  0  0  0  0  0  0  0  0  0  0
    1.2990    2.2500    0.0000 O   0  0  0  0  0  0  0  0  0  0  0  0
  1  2  1  0
  2  3  1  0
  3  4  1  0
  4  5  1  0
  5  6  1  0
  6  7  2  0
  6  8  1  0
  4  9  1  0
  9 10  1  0
 10 11  1  0
 11 12  1  0
 12 13  1  0
 13 14  1  0
 14 15  1  0
 15 16  1  0
 16 17  1  0
 17 18  1  0
 18 19  1  0
 19 20  2  0
 19 21  1  0
 17 22  1  0
 22 23  1  0
 23 24  2  0
 23 25  1  0
  2 26  2  0
M  END
>  <Name>  (34) 
Ethylenebis(oxyethylenenitrilo)tetraacetic_acid_(EGTA)

>  <logK_Lu_z=3.0_T=20_I=0.1>  (34) 
18.2

$$$$

     RDKit          2D

 23 22  0  0  0  0  0  0  0  0999 V2000
   -1.2990    0.7500    0.0000 S   0  0  0  0  0  0  0  0  0  0  0  0
    0.0000    0.0000    0.0000 C   0  0  0  0  0  0  0  0  0  0  0  0
    1.2990    0.7500    0.0000 C   0  0  0  0  0  0  0  0  0  0  0  0
    2.5981   -0.0000    0.0000 N   0  0  0  0  0  0  0  0  0  0  0  0
    3.8971    0.7500    0.0000 C   0  0  0  0  0  0  0  0  0  0  0  0
    5.1962   -0.0000    0.0000 C   0  0  0  0  0  0  0  0  0  0  0  0
    5.1962   -1.5000    0.0000 O   0  0  0  0  0  0  0  0  0  0  0  0
    6.4952    0.7500    0.0000 O   0  0  0  0  0  0  0  0  0  0  0  0
    2.5981   -1.5000    0.0000 C   0  0  0  0  0  0  0  0  0  0  0  0
    1.2990   -2.2500    0.0000 C   0  0  0  0  0  0  0  0  0  0  0  0
    0.0000   -1.5000    0.0000 O   0  0  0  0  0  0  0  0  0  0  0  0
    1.2990   -3.7500    0.0000 O   0  0  0  0  0  0  0  0  0  0  0  0
   -2.5981    0.0000    0.0000 C   0  0  0  0  0  0  0  0  0  0  0  0
   -3.8971    0.7500    0.0000 C   0  0  0  0  0  0  0  0  0  0  0  0
   -5.1962    0.0000    0.0000 N   0  0  0  0  0  0  0  0  0  0  0  0
   -6.4952    0.7500    0.0000 C   0  0  0  0  0  0  0  0  0  0  0  0
   -7.7942    0.0000    0.0000 C   0  0  0  0  0  0  0  0  0  0  0  0
   -7.7942   -1.5000    0.0000 O   0  0  0  0  0  0  0  0  0  0  0  0
   -9.0933    0.7500    0.0000 O   0  0  0  0  0  0  0  0  0  0  0  0
   -5.1962   -1.5000    0.0000 C   0  0  0  0  0  0  0  0  0  0  0  0
   -3.8971   -2.2500    0.0000 C   0  0  0  0  0  0  0  0  0  0  0  0
   -2.5981   -1.5000    0.0000 O   0  0  0  0  0  0  0  0  0  0  0  0
   -3.8971   -3.7500    0.0000 O   0  0  0  0  0  0  0  0  0  0  0  0
  1  2  1  0
  2  3  1  0
  3  4  1  0
  4  5  1  0
  5  6  1  0
  6  7  2  0
  6  8  1  0
  4  9  1  0
  9 10  1  0
 10 11  2  0
 10 12  1  0
  1 13  1  0
 13 14  1  0
 14 15  1  0
 15 16  1  0
 16 17  1  0
 17 18  2  0
 17 19  1  0
 15 20  1  0
 20 21  1  0
 21 22  2  0
 21 23  1  0
M  END
>  <Name>  (35) 
Thiobis(ethylenenitrilo)tetraacetic_acid_(TEDTA)

>  <logK_Lu_z=3.0_T=25_I=0.1>  (35) 
14.1

$$$$

     RDKit          2D

 25 24  0  0  0  0  0  0  0  0999 V2000
    1.2990    0.7500    0.0000 C   0  0  0  0  0  0  0  0  0  0  0  0
    0.0000    0.0000    0.0000 C   0  0  0  0  0  0  0  0  0  0  0  0
    2.5981   -0.0000    0.0000 N   0  0  0  0  0  0  0  0  0  0  0  0
    3.8971    0.7500    0.0000 C   0  0  0  0  0  0  0  0  0  0  0  0
    5.1962   -0.0000    0.0000 C   0  0  0  0  0  0  0  0  0  0  0  0
    6.4952    0.7500    0.0000 N   0  0  0  0  0  0  0  0  0  0  0  0
    7.7942   -0.0000    0.0000 C   0  0  0  0  0  0  0  0  0  0  0  0
    9.0933    0.7500    0.0000 C   0  0  0  0  0  0  0  0  0  0  0  0
    9.0933    2.2500    0.0000 O   0  0  0  0  0  0  0  0  0  0  0  0
   10.3923   -0.0000    0.0000 O   0  0  0  0  0  0  0  0  0  0  0  0
    6.4952    2.2500    0.0000 C   0  0  0  0  0  0  0  0  0  0  0  0
    5.1962    3.0000    0.0000 C   0  0  0  0  0  0  0  0  0  0  0  0
    3.8971    2.2500    0.0000 O   0  0  0  0  0  0  0  0  0  0  0  0
    5.1962    4.5000    0.0000 O   0  0  0  0  0  0  0  0  0  0  0  0
    2.5981   -1.5000    0.0000 C   0  0  0  0  0  0  0  0  0  0  0  0
    3.8971   -2.2500    0.0000 C   0  0  0  0  0  0  0  0  0  0  0  0
    3.8971   -3.7500    0.0000 N   0  0  0  0  0  0  0  0  0  0  0  0
    5.1962   -4.5000    0.0000 C   0  0  0  0  0  0  0  0  0  0  0  0
    5.1962   -6.0000    0.0000 C   0  0  0  0  0  0  0  0  0  0  0  0
    3.8971   -6.7500    0.0000 O   0  0  0  0  0  0  0  0  0  0  0  0
    6.4952   -6.7500    0.0000 O   0  0  0  0  0  0  0  0  0  0  0  0
    2.5981   -4.5000    0.0000 C   0  0  0  0  0  0  0  0  0  0  0  0
    1.2990   -3.7500    0.0000 C   0  0  0  0  0  0  0  0  0  0  0  0
    1.2990   -2.2500    0.0000 O   0  0  0  0  0  0  0  0  0  0  0  0
    0.0000   -4.5000    0.0000 O   0  0  0  0  0  0  0  0  0  0  0  0
  1  2  1  0
  1  3  1  0
  3  4  1  0
  4  5  1  0
  5  6  1  0
  6  7  1  0
  7  8  1  0
  8  9  2  0
  8 10  1  0
  6 11  1  0
 11 12  1  0
 12 13  2  0
 12 14  1  0
  3 15  1  0
 15 16  1  0
 16 17  1  0
 17 18  1  0
 18 19  1  0
 19 20  2  0
 19 21  1  0
 17 22  1  0
 22 23  1  0
 23 24  2  0
 23 25  1  0
M  END
>  <Name>  (36) 
N-Ethyliminobis(ethylenenitrilo)tetraacetic_acid

>  <logK_Lu_z=3.0_T=25_I=0.1>  (36) 
17.68

$$$$

     RDKit          2D

 29 29  0  0  0  0  0  0  0  0999 V2000
    7.5000   -5.1962    0.0000 O   0  0  0  0  0  0  0  0  0  0  0  0
    8.2500   -3.8971    0.0000 C   0  0  0  0  0  0  0  0  0  0  0  0
    7.5000   -2.5981    0.0000 C   0  0  0  0  0  0  0  0  0  0  0  0
    6.0000   -2.5981    0.0000 N   0  0  0  0  0  0  0  0  0  0  0  0
    5.2500   -3.8971    0.0000 C   0  0  0  0  0  0  0  0  0  0  0  0
    3.7500   -3.8971    0.0000 C   0  0  0  0  0  0  0  0  0  0  0  0
    3.0000   -2.5981    0.0000 O   0  0  0  0  0  0  0  0  0  0  0  0
    3.0000   -5.1962    0.0000 O   0  0  0  0  0  0  0  0  0  0  0  0
    5.2500   -1.2990    0.0000 C   0  0  0  0  0  0  0  0  0  0  0  0
    3.7500   -1.2990    0.0000 C   0  0  0  0  0  0  0  0  0  0  0  0
    3.0000    0.0000    0.0000 N   0  0  0  0  0  0  0  0  0  0  0  0
    1.5000    0.0000    0.0000 C   0  0  0  0  0  0  0  0  0  0  0  0
    0.7500   -1.2990    0.0000 C   0  0  0  0  0  0  0  0  0  0  0  0
   -0.7500   -1.2990    0.0000 C   0  0  0  0  0  0  0  0  0  0  0  0
   -1.5000    0.0000    0.0000 C   0  0  0  0  0  0  0  0  0  0  0  0
   -0.7500    1.2990    0.0000 C   0  0  0  0  0  0  0  0  0  0  0  0
    0.7500    1.2990    0.0000 C   0  0  0  0  0  0  0  0  0  0  0  0
    3.7500    1.2990    0.0000 C   0  0  0  0  0  0  0  0  0  0  0  0
    5.2500    1.2990    0.0000 C   0  0  0  0  0  0  0  0  0  0  0  0
    6.0000    2.5981    0.0000 N   0  0  0  0  0  0  0  0  0  0  0  0
    7.5000    2.5981    0.0000 C   0  0  0  0  0  0  0  0  0  0  0  0
    8.2500    3.8971    0.0000 C   0  0  0  0  0  0  0  0  0  0  0  0
    7.5000    5.1962    0.0000 O   0  0  0  0  0  0  0  0  0  0  0  0
    9.7500    3.8971    0.0000 O   0  0  0  0  0  0  0  0  0  0  0  0
    5.2500    3.8971    0.0000 C   0  0  0  0  0  0  0  0  0  0  0  0
    3.7500    3.8971    0.0000 C   0  0  0  0  0  0  0  0  0  0  0  0
    3.0000    2.5981    0.0000 O   0  0  0  0  0  0  0  0  0  0  0  0
    3.0000    5.1962    0.0000 O   0  0  0  0  0  0  0  0  0  0  0  0
    9.7500   -3.8971    0.0000 O   0  0  0  0  0  0  0  0  0  0  0  0
  1  2  1  0
  2  3  1  0
  3  4  1  0
  4  5  1  0
  5  6  1  0
  6  7  2  0
  6  8  1  0
  4  9  1  0
  9 10  1  0
 10 11  1  0
 11 12  1  0
 12 13  2  0
 13 14  1  0
 14 15  2  0
 15 16  1  0
 16 17  2  0
 11 18  1  0
 18 19  1  0
 19 20  1  0
 20 21  1  0
 21 22  1  0
 22 23  2  0
 22 24  1  0
 20 25  1  0
 25 26  1  0
 26 27  2  0
 26 28  1  0
  2 29  2  0
 17 12  1  0
M  END
>  <Name>  (37) 
N-Phenyliminobis(ethylenenitrilo)tetraacetic_acid

>  <logK_Lu_z=3.0_T=25_I=0.1>  (37) 
14.74

$$$$

     RDKit          2D

 27 26  0  0  0  0  0  0  0  0999 V2000
    2.5981   -0.0000    0.0000 O   0  0  0  0  0  0  0  0  0  0  0  0
    1.2990    0.7500    0.0000 C   0  0  0  0  0  0  0  0  0  0  0  0
    0.0000    0.0000    0.0000 C   0  0  0  0  0  0  0  0  0  0  0  0
   -1.2990    0.7500    0.0000 N   0  0  0  0  0  0  0  0  0  0  0  0
   -2.5981    0.0000    0.0000 C   0  0  0  0  0  0  0  0  0  0  0  0
   -3.8971    0.7500    0.0000 C   0  0  0  0  0  0  0  0  0  0  0  0
   -5.1962    0.0000    0.0000 N   0  0  0  0  0  0  0  0  0  0  0  0
   -6.4952    0.7500    0.0000 C   0  0  0  0  0  0  0  0  0  0  0  0
   -7.7942    0.0000    0.0000 C   0  0  0  0  0  0  0  0  0  0  0  0
   -7.7942   -1.5000    0.0000 O   0  0  0  0  0  0  0  0  0  0  0  0
   -9.0933    0.7500    0.0000 O   0  0  0  0  0  0  0  0  0  0  0  0
   -5.1962   -1.5000    0.0000 C   0  0  0  0  0  0  0  0  0  0  0  0
   -3.8971   -2.2500    0.0000 C   0  0  0  0  0  0  0  0  0  0  0  0
   -2.5981   -1.5000    0.0000 O   0  0  0  0  0  0  0  0  0  0  0  0
   -3.8971   -3.7500    0.0000 O   0  0  0  0  0  0  0  0  0  0  0  0
   -1.2990    2.2500    0.0000 C   0  0  0  0  0  0  0  0  0  0  0  0
   -2.5981    3.0000    0.0000 C   0  0  0  0  0  0  0  0  0  0  0  0
   -2.5981    4.5000    0.0000 N   0  0  0  0  0  0  0  0  0  0  0  0
   -3.8971    5.2500    0.0000 C   0  0  0  0  0  0  0  0  0  0  0  0
   -3.8971    6.7500    0.0000 C   0  0  0  0  0  0  0  0  0  0  0  0
   -2.5981    7.5000    0.0000 O   0  0  0  0  0  0  0  0  0  0  0  0
   -5.1962    7.5000    0.0000 O   0  0  0  0  0  0  0  0  0  0  0  0
   -1.2990    5.2500    0.0000 C   0  0  0  0  0  0  0  0  0  0  0  0
    0.0000    4.5000    0.0000 C   0  0  0  0  0  0  0  0  0  0  0  0
   -0.0000    3.0000    0.0000 O   0  0  0  0  0  0  0  0  0  0  0  0
    1.2990    5.2500    0.0000 O   0  0  0  0  0  0  0  0  0  0  0  0
    1.2990    2.2500    0.0000 O   0  0  0  0  0  0  0  0  0  0  0  0
  1  2  1  0
  2  3  1  0
  3  4  1  0
  4  5  1  0
  5  6  1  0
  6  7  1  0
  7  8  1  0
  8  9  1  0
  9 10  2  0
  9 11  1  0
  7 12  1  0
 12 13  1  0
 13 14  2  0
 13 15  1  0
  4 16  1  0
 16 17  1  0
 17 18  1  0
 18 19  1  0
 19 20  1  0
 20 21  2  0
 20 22  1  0
 18 23  1  0
 23 24  1  0
 24 25  2  0
 24 26  1  0
  2 27  2  0
M  END
>  <Name>  (38) 
Diethylenetrinitrilopentaacetic_acid_(DTPA)

>  <logK_Lu_z=3.0_T=25_I=0.1>  (38) 
22.46

>  <logK_Lu_z=3.0_T=25_I=0.5>  (38) 
20.77

$$$$

     RDKit          2D

 30 29  0  0  0  0  0  0  0  0999 V2000
    5.1962    7.5000    0.0000 C   0  0  0  0  0  0  0  0  0  0  0  0
    3.8971    8.2500    0.0000 O   0  0  0  0  0  0  0  0  0  0  0  0
    6.4952    8.2500    0.0000 O   0  0  0  0  0  0  0  0  0  0  0  0
    5.1962    6.0000    0.0000 C   0  0  0  0  0  0  0  0  0  0  0  0
    3.8971    5.2500    0.0000 N   0  0  0  0  0  0  0  0  0  0  0  0
    3.8971    3.7500    0.0000 C   0  0  0  0  0  0  0  0  0  0  0  0
    2.5981    3.0000    0.0000 C   0  0  0  0  0  0  0  0  0  0  0  0
    2.5981    1.5000    0.0000 C   0  0  0  0  0  0  0  0  0  0  0  0
    1.2990    0.7500    0.0000 N   0  0  0  0  0  4  0  0  0  0  0  0
    0.0000    0.0000    0.0000 C   0  0  0  0  0  0  0  0  0  0  0  0
    2.0490   -0.5490    0.0000 C   0  0  0  0  0  0  0  0  0  0  0  0
    3.5490   -0.5490    0.0000 C   0  0  0  0  0  0  0  0  0  0  0  0
    4.2990   -1.8481    0.0000 C   0  0  0  0  0  0  0  0  0  0  0  0
    5.7990   -1.8481    0.0000 N   0  0  0  0  0  0  0  0  0  0  0  0
    6.5490   -3.1471    0.0000 C   0  0  0  0  0  0  0  0  0  0  0  0
    8.0490   -3.1471    0.0000 C   0  0  0  0  0  0  0  0  0  0  0  0
    8.7990   -1.8481    0.0000 O   0  0  0  0  0  0  0  0  0  0  0  0
    8.7990   -4.4462    0.0000 O   0  0  0  0  0  0  0  0  0  0  0  0
    6.5490   -0.5490    0.0000 C   0  0  0  0  0  0  0  0  0  0  0  0
    5.7990    0.7500    0.0000 C   0  0  0  0  0  0  0  0  0  0  0  0
    4.2990    0.7500    0.0000 O   0  0  0  0  0  0  0  0  0  0  0  0
    6.5490    2.0490    0.0000 O   0  0  0  0  0  0  0  0  0  0  0  0
    0.5490    2.0490    0.0000 C   0  0  0  0  0  0  0  0  0  0  0  0
   -0.9510    2.0490    0.0000 C   0  0  0  0  0  0  0  0  0  0  0  0
   -1.7010    0.7500    0.0000 O   0  0  0  0  0  0  0  0  0  0  0  0
   -1.7010    3.3481    0.0000 O   0  0  0  0  0  1  0  0  0  0  0  0
    2.5981    6.0000    0.0000 C   0  0  0  0  0  0  0  0  0  0  0  0
    1.2990    5.2500    0.0000 C   0  0  0  0  0  0  0  0  0  0  0  0
   -0.0000    6.0000    0.0000 O   0  0  0  0  0  0  0  0  0  0  0  0
    1.2990    3.7500    0.0000 O   0  0  0  0  0  0  0  0  0  0  0  0
  1  2  2  0
  1  3  1  0
  1  4  1  0
  4  5  1  0
  5  6  1  0
  6  7  1  0
  7  8  1  0
  8  9  1  0
  9 10  1  0
  9 11  1  0
 11 12  1  0
 12 13  1  0
 13 14  1  0
 14 15  1  0
 15 16  1  0
 16 17  2  0
 16 18  1  0
 14 19  1  0
 19 20  1  0
 20 21  2  0
 20 22  1  0
  9 23  1  0
 23 24  1  0
 24 25  2  0
 24 26  1  0
  5 27  1  0
 27 28  1  0
 28 29  2  0
 28 30  1  0
M  CHG  2   9   1  26  -1
M  END
>  <Name>  (39) 
{Bis[3-(bis(carboxymethyl)amino)propyl]methylammonio}acetate

>  <logK_Lu_z=3.0_T=25_I=0.1>  (39) 
9.83

$$$$

     RDKit          2D

 34 33  0  0  0  0  0  0  0  0999 V2000
    2.5981   -0.0000    0.0000 O   0  0  0  0  0  0  0  0  0  0  0  0
    1.2990    0.7500    0.0000 C   0  0  0  0  0  0  0  0  0  0  0  0
    1.2990    2.2500    0.0000 O   0  0  0  0  0  0  0  0  0  0  0  0
    0.0000    0.0000    0.0000 C   0  0  0  0  0  0  0  0  0  0  0  0
   -1.2990    0.7500    0.0000 N   0  0  0  0  0  0  0  0  0  0  0  0
   -2.5981    0.0000    0.0000 C   0  0  0  0  0  0  0  0  0  0  0  0
   -3.8971    0.7500    0.0000 C   0  0  0  0  0  0  0  0  0  0  0  0
   -5.1962    0.0000    0.0000 N   0  0  0  0  0  0  0  0  0  0  0  0
   -6.4952    0.7500    0.0000 C   0  0  0  0  0  0  0  0  0  0  0  0
   -7.7942    0.0000    0.0000 C   0  0  0  0  0  0  0  0  0  0  0  0
   -9.0933    0.7500    0.0000 N   0  0  0  0  0  0  0  0  0  0  0  0
  -10.3923    0.0000    0.0000 C   0  0  0  0  0  0  0  0  0  0  0  0
  -11.6913    0.7500    0.0000 C   0  0  0  0  0  0  0  0  0  0  0  0
  -12.9904    0.0000    0.0000 O   0  0  0  0  0  0  0  0  0  0  0  0
  -11.6913    2.2500    0.0000 O   0  0  0  0  0  0  0  0  0  0  0  0
   -9.0933    2.2500    0.0000 C   0  0  0  0  0  0  0  0  0  0  0  0
   -7.7942    3.0000    0.0000 C   0  0  0  0  0  0  0  0  0  0  0  0
   -7.7942    4.5000    0.0000 O   0  0  0  0  0  0  0  0  0  0  0  0
   -6.4952    2.2500    0.0000 O   0  0  0  0  0  0  0  0  0  0  0  0
   -5.1962   -1.5000    0.0000 C   0  0  0  0  0  0  0  0  0  0  0  0
   -6.4952   -2.2500    0.0000 C   0  0  0  0  0  0  0  0  0  0  0  0
   -6.4952   -3.7500    0.0000 O   0  0  0  0  0  0  0  0  0  0  0  0
   -7.7942   -1.5000    0.0000 O   0  0  0  0  0  0  0  0  0  0  0  0
   -1.2990    2.2500    0.0000 C   0  0  0  0  0  0  0  0  0  0  0  0
   -2.5981    3.0000    0.0000 C   0  0  0  0  0  0  0  0  0  0  0  0
   -2.5981    4.5000    0.0000 N   0  0  0  0  0  0  0  0  0  0  0  0
   -3.8971    5.2500    0.0000 C   0  0  0  0  0  0  0  0  0  0  0  0
   -3.8971    6.7500    0.0000 C   0  0  0  0  0  0  0  0  0  0  0  0
   -5.1962    7.5000    0.0000 O   0  0  0  0  0  0  0  0  0  0  0  0
   -2.5981    7.5000    0.0000 O   0  0  0  0  0  0  0  0  0  0  0  0
   -1.2990    5.2500    0.0000 C   0  0  0  0  0  0  0  0  0  0  0  0
    0.0000    4.5000    0.0000 C   0  0  0  0  0  0  0  0  0  0  0  0
    1.2990    5.2500    0.0000 O   0  0  0  0  0  0  0  0  0  0  0  0
   -0.0000    3.0000    0.0000 O   0  0  0  0  0  0  0  0  0  0  0  0
  1  2  1  0
  2  3  2  0
  2  4  1  0
  4  5  1  0
  5  6  1  0
  6  7  1  0
  7  8  1  0
  8  9  1  0
  9 10  1  0
 10 11  1  0
 11 12  1  0
 12 13  1  0
 13 14  1  0
 13 15  2  0
 11 16  1  0
 16 17  1  0
 17 18  1  0
 17 19  2  0
  8 20  1  0
 20 21  1  0
 21 22  1  0
 21 23  2  0
  5 24  1  0
 24 25  1  0
 25 26  1  0
 26 27  1  0
 27 28  1  0
 28 29  1  0
 28 30  2  0
 26 31  1  0
 31 32  1  0
 32 33  1  0
 32 34  2  0
M  END
>  <Name>  (40) 
Triethylenetetranitrilohexaacetic_acid_(TTHA)

>  <logK_Lu_z=3.0_T=25_I=0.1>  (40) 
23.9

$$$$

     RDKit          2D

 24 24  0  0  0  0  0  0  0  0999 V2000
    1.5000   -2.5981    0.0000 O   0  0  0  0  0  0  0  0  0  0  0  0
    3.0000   -2.5981    0.0000 C   0  0  0  0  0  0  0  0  0  0  0  0
    3.7500   -1.2990    0.0000 C   0  0  0  0  0  0  0  0  0  0  0  0
    3.0000    0.0000    0.0000 N   0  0  0  0  0  0  0  0  0  0  0  0
    3.7500    1.2990    0.0000 C   0  0  0  0  0  0  0  0  0  0  0  0
    5.2500    1.2990    0.0000 C   0  0  0  0  0  0  0  0  0  0  0  0
    6.0000    0.0000    0.0000 O   0  0  0  0  0  0  0  0  0  0  0  0
    6.0000    2.5981    0.0000 O   0  0  0  0  0  0  0  0  0  0  0  0
    1.5000    0.0000    0.0000 C   0  0  0  0  0  0  0  0  0  0  0  0
    0.7500   -1.2990    0.0000 C   0  0  0  0  0  0  0  0  0  0  0  0
   -0.7500   -1.2990    0.0000 C   0  0  0  0  0  0  0  0  0  0  0  0
   -1.5000    0.0000    0.0000 C   0  0  0  0  0  0  0  0  0  0  0  0
   -0.7500    1.2990    0.0000 C   0  0  0  0  0  0  0  0  0  0  0  0
    0.7500    1.2990    0.0000 C   0  0  0  0  0  0  0  0  0  0  0  0
    1.5000    2.5981    0.0000 N   0  0  0  0  0  0  0  0  0  0  0  0
    0.7500    3.8971    0.0000 C   0  0  0  0  0  0  0  0  0  0  0  0
   -0.7500    3.8971    0.0000 C   0  0  0  0  0  0  0  0  0  0  0  0
   -1.5000    2.5981    0.0000 O   0  0  0  0  0  0  0  0  0  0  0  0
   -1.5000    5.1962    0.0000 O   0  0  0  0  0  0  0  0  0  0  0  0
    3.0000    2.5981    0.0000 C   0  0  0  0  0  0  0  0  0  0  0  0
    3.7500    3.8971    0.0000 C   0  0  0  0  0  0  0  0  0  0  0  0
    3.0000    5.1962    0.0000 O   0  0  0  0  0  0  0  0  0  0  0  0
    5.2500    3.8971    0.0000 O   0  0  0  0  0  0  0  0  0  0  0  0
    3.7500   -3.8971    0.0000 O   0  0  0  0  0  0  0  0  0  0  0  0
  1  2  1  0
  2  3  1  0
  3  4  1  0
  4  5  1  0
  5  6  1  0
  6  7  2  0
  6  8  1  0
  4  9  1  0
  9 10  2  0
 10 11  1  0
 11 12  2  0
 12 13  1  0
 13 14  2  0
 14 15  1  0
 15 16  1  0
 16 17  1  0
 17 18  2  0
 17 19  1  0
 15 20  1  0
 20 21  1  0
 21 22  2  0
 21 23  1  0
  2 24  2  0
 14  9  1  0
M  END
>  <Name>  (41) 
1,2-Phenylenedinitrilotetraacetic_acid

>  <logK_Lu_z=3.0_T=25_I=1.0>  (41) 
16.26

$$$$

     RDKit          2D

  9  9  0  0  0  0  0  0  0  0999 V2000
    3.7500   -1.2990    0.0000 O   0  0  0  0  0  0  0  0  0  0  0  0
    3.0000    0.0000    0.0000 C   0  0  0  0  0  0  0  0  0  0  0  0
    1.5000    0.0000    0.0000 C   0  0  0  0  0  0  0  0  0  0  0  0
    0.7500   -1.2990    0.0000 C   0  0  0  0  0  0  0  0  0  0  0  0
   -0.7500   -1.2990    0.0000 N   0  0  0  0  0  0  0  0  0  0  0  0
   -1.5000    0.0000    0.0000 C   0  0  0  0  0  0  0  0  0  0  0  0
   -0.7500    1.2990    0.0000 C   0  0  0  0  0  0  0  0  0  0  0  0
    0.7500    1.2990    0.0000 N   0  0  0  0  0  0  0  0  0  0  0  0
    3.7500    1.2990    0.0000 O   0  0  0  0  0  0  0  0  0  0  0  0
  1  2  1  0
  2  3  1  0
  3  4  2  0
  4  5  1  0
  5  6  2  0
  6  7  1  0
  7  8  2  0
  2  9  2  0
  8  3  1  0
M  END
>  <Name>  (42) 
1,4-Diazine-2-carboxylic_acid_(Pyrazinecarboxylic_acid)

>  <logK_Lu_z=3.0_T=25_I=1.0>  (42) 
2.98

$$$$

     RDKit          2D

  9  9  0  0  0  0  0  0  0  0999 V2000
    1.5000    0.0000    0.0000 C   0  0  0  0  0  0  0  0  0  0  0  0
    0.7500   -1.2990    0.0000 C   0  0  0  0  0  0  0  0  0  0  0  0
   -0.7500   -1.2990    0.0000 N   0  0  0  0  0  0  0  0  0  0  0  0
   -1.5000    0.0000    0.0000 C   0  0  0  0  0  0  0  0  0  0  0  0
   -0.7500    1.2990    0.0000 C   0  0  0  0  0  0  0  0  0  0  0  0
    0.7500    1.2990    0.0000 C   0  0  0  0  0  0  0  0  0  0  0  0
   -3.0000    0.0000    0.0000 C   0  0  0  0  0  0  0  0  0  0  0  0
   -3.7500   -1.2990    0.0000 O   0  0  0  0  0  0  0  0  0  0  0  0
   -3.7500    1.2990    0.0000 O   0  0  0  0  0  0  0  0  0  0  0  0
  1  2  2  0
  2  3  1  0
  3  4  2  0
  4  5  1  0
  5  6  2  0
  4  7  1  0
  7  8  2  0
  7  9  1  0
  6  1  1  0
M  END
>  <Name>  (43) 
Pyridine-2-carboxylic_acid_(Picolinic_acid)

>  <logK_Lu_z=3.0_T=25_I=0.1>  (43) 
4.41

>  <logK_Lu_z=3.0_T=25_I=0.5>  (43) 
4.09

$$$$

     RDKit          2D

 10 10  0  0  0  0  0  0  0  0999 V2000
    3.0000    0.0000    0.0000 O   0  0  0  0  0  1  0  0  0  0  0  0
    1.5000    0.0000    0.0000 N   0  0  0  0  0  4  0  0  0  0  0  0
    0.7500   -1.2990    0.0000 C   0  0  0  0  0  0  0  0  0  0  0  0
   -0.7500   -1.2990    0.0000 C   0  0  0  0  0  0  0  0  0  0  0  0
   -1.5000    0.0000    0.0000 C   0  0  0  0  0  0  0  0  0  0  0  0
   -0.7500    1.2990    0.0000 C   0  0  0  0  0  0  0  0  0  0  0  0
    0.7500    1.2990    0.0000 C   0  0  0  0  0  0  0  0  0  0  0  0
    1.5000    2.5981    0.0000 C   0  0  0  0  0  0  0  0  0  0  0  0
    0.7500    3.8971    0.0000 O   0  0  0  0  0  0  0  0  0  0  0  0
    3.0000    2.5981    0.0000 O   0  0  0  0  0  0  0  0  0  0  0  0
  1  2  1  0
  2  3  2  0
  3  4  1  0
  4  5  2  0
  5  6  1  0
  6  7  2  0
  7  8  1  0
  8  9  2  0
  8 10  1  0
  7  2  1  0
M  CHG  2   1  -1   2   1
M  END
>  <Name>  (44) 
Pyridine-2-carboxylic_acid_N-oxide

>  <logK_Lu_z=3.0_T=25_I=2.0>  (44) 
3.48

$$$$

     RDKit          2D

 12 12  0  0  0  0  0  0  0  0999 V2000
    1.5000    0.0000    0.0000 N   0  0  0  0  0  0  0  0  0  0  0  0
    0.7500   -1.2990    0.0000 C   0  0  0  0  0  0  0  0  0  0  0  0
    1.5000   -2.5981    0.0000 C   0  0  0  0  0  0  0  0  0  0  0  0
    3.0000   -2.5981    0.0000 O   0  0  0  0  0  0  0  0  0  0  0  0
    0.7500   -3.8971    0.0000 O   0  0  0  0  0  0  0  0  0  0  0  0
   -0.7500   -1.2990    0.0000 C   0  0  0  0  0  0  0  0  0  0  0  0
   -1.5000   -2.5981    0.0000 C   0  0  0  0  0  0  0  0  0  0  0  0
   -0.7500   -3.8971    0.0000 O   0  0  0  0  0  0  0  0  0  0  0  0
   -3.0000   -2.5981    0.0000 O   0  0  0  0  0  0  0  0  0  0  0  0
   -1.5000    0.0000    0.0000 C   0  0  0  0  0  0  0  0  0  0  0  0
   -0.7500    1.2990    0.0000 C   0  0  0  0  0  0  0  0  0  0  0  0
    0.7500    1.2990    0.0000 C   0  0  0  0  0  0  0  0  0  0  0  0
  1  2  2  0
  2  3  1  0
  3  4  1  0
  3  5  2  0
  2  6  1  0
  6  7  1  0
  7  8  2  0
  7  9  1  0
  6 10  2  0
 10 11  1  0
 11 12  2  0
 12  1  1  0
M  END
>  <Name>  (45) 
Pyridine-2,3-dicarboxylic_acid_(Quinolinic_acid)

>  <logK_Lu_z=3.0_T=25_I=0.5>  (45) 
4.02

$$$$

     RDKit          2D

 12 12  0  0  0  0  0  0  0  0999 V2000
    1.5000    0.0000    0.0000 N   0  0  0  0  0  0  0  0  0  0  0  0
    0.7500   -1.2990    0.0000 C   0  0  0  0  0  0  0  0  0  0  0  0
    1.5000   -2.5981    0.0000 C   0  0  0  0  0  0  0  0  0  0  0  0
    0.7500   -3.8971    0.0000 O   0  0  0  0  0  0  0  0  0  0  0  0
    3.0000   -2.5981    0.0000 O   0  0  0  0  0  0  0  0  0  0  0  0
   -0.7500   -1.2990    0.0000 C   0  0  0  0  0  0  0  0  0  0  0  0
   -1.5000    0.0000    0.0000 C   0  0  0  0  0  0  0  0  0  0  0  0
   -0.7500    1.2990    0.0000 C   0  0  0  0  0  0  0  0  0  0  0  0
    0.7500    1.2990    0.0000 C   0  0  0  0  0  0  0  0  0  0  0  0
    1.5000    2.5981    0.0000 C   0  0  0  0  0  0  0  0  0  0  0  0
    3.0000    2.5981    0.0000 O   0  0  0  0  0  0  0  0  0  0  0  0
    0.7500    3.8971    0.0000 O   0  0  0  0  0  0  0  0  0  0  0  0
  1  2  2  0
  2  3  1  0
  3  4  1  0
  3  5  2  0
  2  6  1  0
  6  7  2  0
  7  8  1  0
  8  9  2  0
  9 10  1  0
 10 11  1  0
 10 12  2  0
  9  1  1  0
M  END
>  <Name>  (46) 
Pyridine-2,6-dicarboxylic_acid_(Dipicolinic_acid)

>  <logK_Lu_z=3.0_T=25_I=0.5>  (46) 
9.0

$$$$

     RDKit          2D

 16 16  0  0  0  0  0  0  0  0999 V2000
    5.2500    1.2990    0.0000 O   0  0  0  0  0  0  0  0  0  0  0  0
    6.0000    0.0000    0.0000 C   0  0  0  0  0  0  0  0  0  0  0  0
    5.2500   -1.2990    0.0000 C   0  0  0  0  0  0  0  0  0  0  0  0
    3.7500   -1.2990    0.0000 N   0  0  0  0  0  0  0  0  0  0  0  0
    3.0000   -2.5981    0.0000 C   0  0  0  0  0  0  0  0  0  0  0  0
    3.7500   -3.8971    0.0000 C   0  0  0  0  0  0  0  0  0  0  0  0
    5.2500   -3.8971    0.0000 O   0  0  0  0  0  0  0  0  0  0  0  0
    3.0000   -5.1962    0.0000 O   0  0  0  0  0  0  0  0  0  0  0  0
    3.0000    0.0000    0.0000 C   0  0  0  0  0  0  0  0  0  0  0  0
    1.5000    0.0000    0.0000 C   0  0  0  0  0  0  0  0  0  0  0  0
    0.7500   -1.2990    0.0000 C   0  0  0  0  0  0  0  0  0  0  0  0
   -0.7500   -1.2990    0.0000 C   0  0  0  0  0  0  0  0  0  0  0  0
   -1.5000    0.0000    0.0000 C   0  0  0  0  0  0  0  0  0  0  0  0
   -0.7500    1.2990    0.0000 C   0  0  0  0  0  0  0  0  0  0  0  0
    0.7500    1.2990    0.0000 N   0  0  0  0  0  0  0  0  0  0  0  0
    7.5000   -0.0000    0.0000 O   0  0  0  0  0  0  0  0  0  0  0  0
  1  2  1  0
  2  3  1  0
  3  4  1  0
  4  5  1  0
  5  6  1  0
  6  7  2  0
  6  8  1  0
  4  9  1  0
  9 10  1  0
 10 11  2  0
 11 12  1  0
 12 13  2  0
 13 14  1  0
 14 15  2  0
  2 16  2  0
 15 10  1  0
M  END
>  <Name>  (47) 
N-(2-Pyridylmethyl)iminodiacetic_acid

>  <logK_Lu_z=3.0_T=25_I=0.1>  (47) 
9.72

$$$$

     RDKit          2D

 17 17  0  0  0  0  0  0  0  0999 V2000
    3.0000    0.0000    0.0000 C   0  0  0  0  0  0  0  0  0  0  0  0
    1.5000    0.0000    0.0000 C   0  0  0  0  0  0  0  0  0  0  0  0
    0.7500   -1.2990    0.0000 C   0  0  0  0  0  0  0  0  0  0  0  0
   -0.7500   -1.2990    0.0000 C   0  0  0  0  0  0  0  0  0  0  0  0
   -1.5000    0.0000    0.0000 C   0  0  0  0  0  0  0  0  0  0  0  0
   -0.7500    1.2990    0.0000 C   0  0  0  0  0  0  0  0  0  0  0  0
    0.7500    1.2990    0.0000 N   0  0  0  0  0  0  0  0  0  0  0  0
   -1.5000    2.5981    0.0000 C   0  0  0  0  0  0  0  0  0  0  0  0
   -0.7500    3.8971    0.0000 N   0  0  0  0  0  0  0  0  0  0  0  0
   -1.5000    5.1962    0.0000 C   0  0  0  0  0  0  0  0  0  0  0  0
   -3.0000    5.1962    0.0000 C   0  0  0  0  0  0  0  0  0  0  0  0
   -3.7500    3.8971    0.0000 O   0  0  0  0  0  0  0  0  0  0  0  0
   -3.7500    6.4952    0.0000 O   0  0  0  0  0  0  0  0  0  0  0  0
    0.7500    3.8971    0.0000 C   0  0  0  0  0  0  0  0  0  0  0  0
    1.5000    5.1962    0.0000 C   0  0  0  0  0  0  0  0  0  0  0  0
    0.7500    6.4952    0.0000 O   0  0  0  0  0  0  0  0  0  0  0  0
    3.0000    5.1962    0.0000 O   0  0  0  0  0  0  0  0  0  0  0  0
  1  2  1  0
  2  3  2  0
  3  4  1  0
  4  5  2  0
  5  6  1  0
  6  7  2  0
  6  8  1  0
  8  9  1  0
  9 10  1  0
 10 11  1  0
 11 12  2  0
 11 13  1  0
  9 14  1  0
 14 15  1  0
 15 16  2  0
 15 17  1  0
  7  2  1  0
M  END
>  <Name>  (48) 
N-(6-Methyl-2-pyridylmethyl)iminodiacetic_acid

>  <logK_Lu_z=3.0_T=25_I=0.1>  (48) 
7.6

$$$$

     RDKit          2D

 18 18  0  0  0  0  0  0  0  0999 V2000
    4.3191    0.0000    0.0000 N   0  0  0  0  0  0  0  0  0  0  0  0
    4.0586   -1.4772    0.0000 C   0  0  0  0  0  0  0  0  0  0  0  0
    3.3086   -2.7762    0.0000 C   0  0  0  0  0  0  0  0  0  0  0  0
    2.1595   -3.7404    0.0000 N   0  0  0  0  0  0  0  0  0  0  0  0
    0.7500   -4.2535    0.0000 C   0  0  0  0  0  0  0  0  0  0  0  0
   -0.7500   -4.2535    0.0000 C   0  0  0  0  0  0  0  0  0  0  0  0
   -2.1595   -3.7404    0.0000 N   0  0  0  0  0  0  0  0  0  0  0  0
   -3.3086   -2.7762    0.0000 C   0  0  0  0  0  0  0  0  0  0  0  0
   -4.0586   -1.4772    0.0000 C   0  0  0  0  0  0  0  0  0  0  0  0
   -4.3191    0.0000    0.0000 N   0  0  0  0  0  0  0  0  0  0  0  0
   -4.0586    1.4772    0.0000 C   0  0  0  0  0  0  0  0  0  0  0  0
   -3.3086    2.7762    0.0000 C   0  0  0  0  0  0  0  0  0  0  0  0
   -2.1595    3.7404    0.0000 N   0  0  0  0  0  0  0  0  0  0  0  0
   -0.7500    4.2535    0.0000 C   0  0  0  0  0  0  0  0  0  0  0  0
    0.7500    4.2535    0.0000 C   0  0  0  0  0  0  0  0  0  0  0  0
    2.1595    3.7404    0.0000 N   0  0  0  0  0  0  0  0  0  0  0  0
    3.3086    2.7762    0.0000 C   0  0  0  0  0  0  0  0  0  0  0  0
    4.0586    1.4772    0.0000 C   0  0  0  0  0  0  0  0  0  0  0  0
  1  2  1  0
  2  3  1  0
  3  4  1  0
  4  5  1  0
  5  6  1  0
  6  7  1  0
  7  8  1  0
  8  9  1  0
  9 10  1  0
 10 11  1  0
 11 12  1  0
 12 13  1  0
 13 14  1  0
 14 15  1  0
 15 16  1  0
 16 17  1  0
 17 18  1  0
 18  1  1  0
M  END
>  <Name>  (49) 
1,4,7,10,13,16-Hexaazacyclooctadecane_([18]aneN6)

>  <logK_Lu_z=3.0_T=25_I=0.1>  (49) 
9.15

$$$$

     RDKit          2D

 20 21  0  0  0  0  0  0  0  0999 V2000
   -0.3771    3.5875    0.0000 O   0  0  0  0  0  0  0  0  0  0  0  0
    1.1147    3.4307    0.0000 C   0  0  0  0  0  0  0  0  0  0  0  0
    2.4138    2.6807    0.0000 C   0  0  0  0  0  0  0  0  0  0  0  0
    3.2954    1.4672    0.0000 N   0  0  0  0  0  0  0  0  0  0  0  0
    3.6073    0.0000    0.0000 C   0  0  0  0  0  0  0  0  0  0  0  0
    3.2954   -1.4672    0.0000 C   0  0  0  0  0  0  0  0  0  0  0  0
    2.4138   -2.6807    0.0000 O   0  0  0  0  0  0  0  0  0  0  0  0
    1.1147   -3.4307    0.0000 C   0  0  0  0  0  0  0  0  0  0  0  0
   -0.3771   -3.5875    0.0000 C   0  0  0  0  0  0  0  0  0  0  0  0
   -1.8037   -3.1240    0.0000 O   0  0  0  0  0  0  0  0  0  0  0  0
   -2.9184   -2.1203    0.0000 C   0  0  0  0  0  0  0  0  0  0  0  0
   -3.5285   -0.7500    0.0000 C   0  0  0  0  0  0  0  0  0  0  0  0
   -3.5285    0.7500    0.0000 N   0  0  0  0  0  0  0  0  0  0  0  0
   -2.9184    2.1203    0.0000 C   0  0  0  0  0  0  0  0  0  0  0  0
   -1.8037    3.1240    0.0000 C   0  0  0  0  0  0  0  0  0  0  0  0
   -2.6468   -0.4635    0.0000 C   0  0  0  0  0  0  0  0  0  0  0  0
   -1.3478   -1.2135    0.0000 C   0  0  0  0  0  0  0  0  0  0  0  0
    0.1440   -1.3703    0.0000 O   0  0  0  0  0  0  0  0  0  0  0  0
    1.5706   -0.9068    0.0000 C   0  0  0  0  0  0  0  0  0  0  0  0
    2.6853    0.0969    0.0000 C   0  0  0  0  0  0  0  0  0  0  0  0
  1  2  1  0
  2  3  1  0
  3  4  1  0
  4  5  1  0
  5  6  1  0
  6  7  1  0
  7  8  1  0
  8  9  1  0
  9 10  1  0
 10 11  1  0
 11 12  1  0
 12 13  1  0
 13 14  1  0
 14 15  1  0
 13 16  1  0
 16 17  1  0
 17 18  1  0
 18 19  1  0
 19 20  1  0
 15  1  1  0
 20  4  1  0
M  END
>  <Name>  (50) 
4,7,13,18-Tetraoxa-1,10-diazabicyclo[8.5.5]eicosane_([2.1.1]cryptand)

>  <logK_Lu_z=3.0_T=25_I=0.5>  (50) 
6.55

$$$$

     RDKit          2D

  3  2  0  0  0  0  0  0  0  0999 V2000
    0.0000    0.0000    0.0000 C   0  0  0  0  0  0  0  0  0  0  0  0
    1.2990    0.7500    0.0000 O   0  0  0  0  0  0  0  0  0  0  0  0
   -1.2990    0.7500    0.0000 O   0  0  0  0  0  0  0  0  0  0  0  0
  1  2  1  0
  1  3  2  0
M  END
>  <Name>  (51) 
Methanoic_acid_(Formic_acid)

>  <logK_Lu_z=3.0_T=25_I=0.1>  (51) 
0.99

$$$$

     RDKit          2D

  4  3  0  0  0  0  0  0  0  0999 V2000
    1.2990    0.7500    0.0000 C   0  0  0  0  0  0  0  0  0  0  0  0
    2.5981   -0.0000    0.0000 O   0  0  0  0  0  0  0  0  0  0  0  0
    1.2990    2.2500    0.0000 O   0  0  0  0  0  0  0  0  0  0  0  0
    0.0000    0.0000    0.0000 C   0  0  0  0  0  0  0  0  0  0  0  0
  1  2  1  0
  1  3  2  0
  1  4  1  0
M  END
>  <Name>  (52) 
Ethanoic_acid_(Acetic_acid)

>  <logK_Lu_z=3.0_T=25_I=0.1>  (52) 
1.85

$$$$

     RDKit          2D

  5  4  0  0  0  0  0  0  0  0999 V2000
    2.5981   -1.5000    0.0000 O   0  0  0  0  0  0  0  0  0  0  0  0
    2.5981   -0.0000    0.0000 C   0  0  0  0  0  0  0  0  0  0  0  0
    1.2990    0.7500    0.0000 C   0  0  0  0  0  0  0  0  0  0  0  0
    0.0000    0.0000    0.0000 C   0  0  0  0  0  0  0  0  0  0  0  0
    3.8971    0.7500    0.0000 O   0  0  0  0  0  0  0  0  0  0  0  0
  1  2  2  0
  2  3  1  0
  3  4  1  0
  2  5  1  0
M  END
>  <Name>  (53) 
Propanoic_acid_(Propionic_acid)

>  <logK_Lu_z=3.0_T=20_I=0.1>  (53) 
2.0

>  <logK_Lu_z=3.0_T=25_I=2.0>  (53) 
1.66

$$$$

     RDKit          2D

  6  5  0  0  0  0  0  0  0  0999 V2000
    0.0000    0.0000    0.0000 C   0  0  0  0  0  0  0  0  0  0  0  0
    1.2990    0.7500    0.0000 C   0  0  0  0  0  0  0  0  0  0  0  0
    1.2990    2.2500    0.0000 C   0  0  0  0  0  0  0  0  0  0  0  0
   -0.0000    3.0000    0.0000 O   0  0  0  0  0  0  0  0  0  0  0  0
    2.5981    3.0000    0.0000 O   0  0  0  0  0  0  0  0  0  0  0  0
    2.5981   -0.0000    0.0000 C   0  0  0  0  0  0  0  0  0  0  0  0
  1  2  1  0
  2  3  1  0
  3  4  2  0
  3  5  1  0
  2  6  1  0
M  END
>  <Name>  (54) 
2-Methylpropanoic_acid_(Isobutyric_acid)

>  <logK_Lu_z=3.0_T=25_I=0.5>  (54) 
1.81

>  <logK_Lu_z=3.0_T=25_I=2.0>  (54) 
1.65

$$$$

     RDKit          2D

  9  9  0  0  0  0  0  0  0  0999 V2000
    3.7500   -1.2990    0.0000 O   0  0  0  0  0  0  0  0  0  0  0  0
    3.0000    0.0000    0.0000 C   0  0  0  0  0  0  0  0  0  0  0  0
    1.5000    0.0000    0.0000 C   0  0  0  0  0  0  0  0  0  0  0  0
    0.7500   -1.2990    0.0000 C   0  0  0  0  0  0  0  0  0  0  0  0
   -0.7500   -1.2990    0.0000 C   0  0  0  0  0  0  0  0  0  0  0  0
   -1.5000    0.0000    0.0000 C   0  0  0  0  0  0  0  0  0  0  0  0
   -0.7500    1.2990    0.0000 C   0  0  0  0  0  0  0  0  0  0  0  0
    0.7500    1.2990    0.0000 C   0  0  0  0  0  0  0  0  0  0  0  0
    3.7500    1.2990    0.0000 O   0  0  0  0  0  0  0  0  0  0  0  0
  1  2  1  0
  2  3  1  0
  3  4  2  0
  4  5  1  0
  5  6  2  0
  6  7  1  0
  7  8  2  0
  2  9  2  0
  8  3  1  0
M  END
>  <Name>  (55) 
Benzenecarboxylic_acid_(Benzoic_acid)

>  <logK_Lu_z=3.0_T=25_I=0.1>  (55) 
1.92

$$$$

     RDKit          2D

 10 10  0  0  0  0  0  0  0  0999 V2000
    5.2500   -1.2990    0.0000 O   0  0  0  0  0  0  0  0  0  0  0  0
    3.7500   -1.2990    0.0000 C   0  0  0  0  0  0  0  0  0  0  0  0
    3.0000   -2.5981    0.0000 O   0  0  0  0  0  0  0  0  0  0  0  0
    3.0000    0.0000    0.0000 C   0  0  0  0  0  0  0  0  0  0  0  0
    1.5000    0.0000    0.0000 C   0  0  0  0  0  0  0  0  0  0  0  0
    0.7500   -1.2990    0.0000 C   0  0  0  0  0  0  0  0  0  0  0  0
   -0.7500   -1.2990    0.0000 C   0  0  0  0  0  0  0  0  0  0  0  0
   -1.5000    0.0000    0.0000 C   0  0  0  0  0  0  0  0  0  0  0  0
   -0.7500    1.2990    0.0000 C   0  0  0  0  0  0  0  0  0  0  0  0
    0.7500    1.2990    0.0000 C   0  0  0  0  0  0  0  0  0  0  0  0
  1  2  1  0
  2  3  2  0
  2  4  1  0
  4  5  1  0
  5  6  2  0
  6  7  1  0
  7  8  2  0
  8  9  1  0
  9 10  2  0
 10  5  1  0
M  END
>  <Name>  (56) 
Phenylacetic_acid

>  <logK_Lu_z=3.0_T=25_I=0.1>  (56) 
1.82

$$$$

     RDKit          2D

  5  4  0  0  0  0  0  0  0  0999 V2000
    2.5981   -0.0000    0.0000 O   0  0  0  0  0  0  0  0  0  0  0  0
    1.2990    0.7500    0.0000 C   0  0  0  0  0  0  0  0  0  0  0  0
    0.0000    0.0000    0.0000 C   0  0  0  0  0  0  0  0  0  0  0  0
   -1.2990    0.7500    0.0000 Cl  0  0  0  0  0  0  0  0  0  0  0  0
    1.2990    2.2500    0.0000 O   0  0  0  0  0  0  0  0  0  0  0  0
  1  2  1  0
  2  3  1  0
  3  4  1  0
  2  5  2  0
M  END
>  <Name>  (57) 
Chloroacetic_acid

>  <logK_Lu_z=3.0_T=25_I=0.1>  (57) 
1.02

$$$$

     RDKit          2D

  5  4  0  0  0  0  0  0  0  0999 V2000
    1.2990    2.2500    0.0000 O   0  0  0  0  0  0  0  0  0  0  0  0
    1.2990    0.7500    0.0000 C   0  0  0  0  0  0  0  0  0  0  0  0
    0.0000    0.0000    0.0000 C   0  0  0  0  0  0  0  0  0  0  0  0
   -1.2990    0.7500    0.0000 I   0  0  0  0  0  0  0  0  0  0  0  0
    2.5981   -0.0000    0.0000 O   0  0  0  0  0  0  0  0  0  0  0  0
  1  2  2  0
  2  3  1  0
  3  4  1  0
  2  5  1  0
M  END
>  <Name>  (58) 
Iodoacetic_acid

>  <logK_Lu_z=3.0_T=25_I=0.1>  (58) 
1.32

$$$$

     RDKit          2D

 10 10  0  0  0  0  0  0  0  0999 V2000
    1.5000    0.0000    0.0000 C   0  0  0  0  0  0  0  0  0  0  0  0
    3.0000    0.0000    0.0000 C   0  0  0  0  0  0  0  0  0  0  0  0
    3.7500    1.2990    0.0000 O   0  0  0  0  0  0  0  0  0  0  0  0
    3.7500   -1.2990    0.0000 O   0  0  0  0  0  0  0  0  0  0  0  0
    0.7500   -1.2990    0.0000 C   0  0  0  0  0  0  0  0  0  0  0  0
   -0.7500   -1.2990    0.0000 C   0  0  0  0  0  0  0  0  0  0  0  0
   -1.5000    0.0000    0.0000 C   0  0  0  0  0  0  0  0  0  0  0  0
   -0.7500    1.2990    0.0000 C   0  0  0  0  0  0  0  0  0  0  0  0
   -1.5000    2.5981    0.0000 F   0  0  0  0  0  0  0  0  0  0  0  0
    0.7500    1.2990    0.0000 C   0  0  0  0  0  0  0  0  0  0  0  0
  1  2  1  0
  2  3  2  0
  2  4  1  0
  1  5  2  0
  5  6  1  0
  6  7  2  0
  7  8  1  0
  8  9  1  0
  8 10  2  0
 10  1  1  0
M  END
>  <Name>  (59) 
3-Fluorobenzoic_acid

>  <logK_Lu_z=3.0_T=25_I=0.1>  (59) 
1.8

$$$$

     RDKit          2D

 10 10  0  0  0  0  0  0  0  0999 V2000
    1.5000    0.0000    0.0000 C   0  0  0  0  0  0  0  0  0  0  0  0
    0.7500   -1.2990    0.0000 C   0  0  0  0  0  0  0  0  0  0  0  0
    1.5000   -2.5981    0.0000 C   0  0  0  0  0  0  0  0  0  0  0  0
    0.7500   -3.8971    0.0000 O   0  0  0  0  0  0  0  0  0  0  0  0
    3.0000   -2.5981    0.0000 O   0  0  0  0  0  0  0  0  0  0  0  0
   -0.7500   -1.2990    0.0000 C   0  0  0  0  0  0  0  0  0  0  0  0
   -1.5000    0.0000    0.0000 C   0  0  0  0  0  0  0  0  0  0  0  0
   -0.7500    1.2990    0.0000 C   0  0  0  0  0  0  0  0  0  0  0  0
   -1.5000    2.5981    0.0000 F   0  0  0  0  0  0  0  0  0  0  0  0
    0.7500    1.2990    0.0000 C   0  0  0  0  0  0  0  0  0  0  0  0
  1  2  2  0
  2  3  1  0
  3  4  1  0
  3  5  2  0
  2  6  1  0
  6  7  2  0
  7  8  1  0
  8  9  1  0
  8 10  2  0
 10  1  1  0
M  END
>  <Name>  (60) 
4-Fluorobenzoic_acid

>  <logK_Lu_z=3.0_T=25_I=0.1>  (60) 
1.89

$$$$

     RDKit          2D

 12 12  0  0  0  0  0  0  0  0999 V2000
    3.0000    0.0000    0.0000 C   0  0  0  0  0  0  0  0  0  0  0  0
    1.5000    0.0000    0.0000 C   0  0  0  0  0  0  0  0  0  0  0  0
    0.7500   -1.2990    0.0000 C   0  0  0  0  0  0  0  0  0  0  0  0
   -0.7500   -1.2990    0.0000 C   0  0  0  0  0  0  0  0  0  0  0  0
   -1.5000   -2.5981    0.0000 N   0  0  0  0  0  4  0  0  0  0  0  0
   -3.0000   -2.5981    0.0000 O   0  0  0  0  0  1  0  0  0  0  0  0
   -0.7500   -3.8971    0.0000 O   0  0  0  0  0  0  0  0  0  0  0  0
   -1.5000    0.0000    0.0000 C   0  0  0  0  0  0  0  0  0  0  0  0
   -0.7500    1.2990    0.0000 C   0  0  0  0  0  0  0  0  0  0  0  0
    0.7500    1.2990    0.0000 C   0  0  0  0  0  0  0  0  0  0  0  0
    3.7500   -1.2990    0.0000 O   0  0  0  0  0  0  0  0  0  0  0  0
    3.7500    1.2990    0.0000 O   0  0  0  0  0  0  0  0  0  0  0  0
  1  2  1  0
  2  3  2  0
  3  4  1  0
  4  5  1  0
  5  6  1  0
  5  7  2  0
  4  8  2  0
  8  9  1  0
  9 10  2  0
  1 11  1  0
  1 12  2  0
 10  2  1  0
M  CHG  2   5   1   6  -1
M  END
>  <Name>  (61) 
3-Nitrobenzoic_acid

>  <logK_Lu_z=3.0_T=25_I=0.1>  (61) 
1.64

$$$$

     RDKit          2D

  5  4  0  0  0  0  0  0  0  0999 V2000
    1.2990    0.7500    0.0000 C   0  0  0  0  0  0  0  0  0  0  0  0
    0.0000    0.0000    0.0000 C   0  0  0  0  0  0  0  0  0  0  0  0
   -1.2990    0.7500    0.0000 O   0  0  0  0  0  0  0  0  0  0  0  0
    2.5981   -0.0000    0.0000 O   0  0  0  0  0  0  0  0  0  0  0  0
    1.2990    2.2500    0.0000 O   0  0  0  0  0  0  0  0  0  0  0  0
  1  2  1  0
  2  3  1  0
  1  4  1  0
  1  5  2  0
M  END
>  <Name>  (62) 
Hydroxyacetic_acid_(Glycolic_acid)

>  <logK_Lu_z=3.0_T=20_I=0.1>  (62) 
3.15

>  <logK_Lu_z=3.0_T=25_I=2.0>  (62) 
2.67

$$$$

     RDKit          2D

  7  6  0  0  0  0  0  0  0  0999 V2000
    3.8971    0.7500    0.0000 C   0  0  0  0  0  0  0  0  0  0  0  0
    2.5981   -0.0000    0.0000 C   0  0  0  0  0  0  0  0  0  0  0  0
    2.5981   -1.5000    0.0000 O   0  0  0  0  0  0  0  0  0  0  0  0
    1.2990    0.7500    0.0000 C   0  0  0  0  0  0  0  0  0  0  0  0
    0.0000    0.0000    0.0000 C   0  0  0  0  0  0  0  0  0  0  0  0
    5.1962   -0.0000    0.0000 O   0  0  0  0  0  0  0  0  0  0  0  0
    3.8971    2.2500    0.0000 O   0  0  0  0  0  0  0  0  0  0  0  0
  1  2  1  0
  2  3  1  0
  2  4  1  0
  4  5  1  0
  1  6  1  0
  1  7  2  0
M  END
>  <Name>  (63) 
DL-2-Hydroxybutanoic_acid

>  <logK_Lu_z=3.0_T=25_I=0.1>  (63) 
3.13

$$$$

     RDKit          2D

  8  7  0  0  0  0  0  0  0  0999 V2000
    0.0000    0.0000    0.0000 C   0  0  0  0  0  0  0  0  0  0  0  0
    1.2990    0.7500    0.0000 C   0  0  0  0  0  0  0  0  0  0  0  0
    2.5981   -0.0000    0.0000 C   0  0  0  0  0  0  0  0  0  0  0  0
    3.8971    0.7500    0.0000 C   0  0  0  0  0  0  0  0  0  0  0  0
    5.1962   -0.0000    0.0000 C   0  0  0  0  0  0  0  0  0  0  0  0
    5.1962   -1.5000    0.0000 O   0  0  0  0  0  0  0  0  0  0  0  0
    6.4952    0.7500    0.0000 O   0  0  0  0  0  0  0  0  0  0  0  0
    3.8971    2.2500    0.0000 O   0  0  0  0  0  0  0  0  0  0  0  0
  1  2  1  0
  2  3  1  0
  3  4  1  0
  4  5  1  0
  5  6  2  0
  5  7  1  0
  4  8  1  0
M  END
>  <Name>  (64) 
DL-2-Hydroxypentanoic_acid

>  <logK_Lu_z=3.0_T=25_I=1.0>  (64) 
2.76

$$$$

     RDKit          2D

  8  7  0  0  0  0  0  0  0  0999 V2000
    2.5981    4.5000    0.0000 O   0  0  0  0  0  0  0  0  0  0  0  0
    2.5981    3.0000    0.0000 C   0  0  0  0  0  0  0  0  0  0  0  0
    3.8971    2.2500    0.0000 O   0  0  0  0  0  0  0  0  0  0  0  0
    1.2990    2.2500    0.0000 C   0  0  0  0  0  0  0  0  0  0  0  0
   -0.0000    3.0000    0.0000 O   0  0  0  0  0  0  0  0  0  0  0  0
    1.2990    0.7500    0.0000 C   0  0  0  0  0  0  0  0  0  0  0  0
    0.0000    0.0000    0.0000 C   0  0  0  0  0  0  0  0  0  0  0  0
    2.5981   -0.0000    0.0000 C   0  0  0  0  0  0  0  0  0  0  0  0
  1  2  1  0
  2  3  2  0
  2  4  1  0
  4  5  1  0
  4  6  1  0
  6  7  1  0
  6  8  1  0
M  END
>  <Name>  (65) 
DL-2-Hydroxy-3-methylbutanoic_acid

>  <logK_Lu_z=3.0_T=25_I=0.1>  (65) 
2.99

$$$$

     RDKit          2D

  9  8  0  0  0  0  0  0  0  0999 V2000
    1.2990    3.3481    0.0000 C   0  0  0  0  0  0  0  0  0  0  0  0
    2.7990    3.3481    0.0000 O   0  0  0  0  0  0  0  0  0  0  0  0
    0.5490    4.6471    0.0000 O   0  0  0  0  0  0  0  0  0  0  0  0
    0.5490    2.0490    0.0000 C   0  0  0  0  0  0  0  0  0  0  0  0
   -0.9510    2.0490    0.0000 O   0  0  0  0  0  0  0  0  0  0  0  0
    1.2990    0.7500    0.0000 C   0  0  0  0  0  0  0  0  0  0  0  0
    0.0000    0.0000    0.0000 C   0  0  0  0  0  0  0  0  0  0  0  0
    2.5981    1.5000    0.0000 C   0  0  0  0  0  0  0  0  0  0  0  0
    2.0490   -0.5490    0.0000 C   0  0  0  0  0  0  0  0  0  0  0  0
  1  2  2  0
  1  3  1  0
  1  4  1  0
  4  5  1  0
  4  6  1  0
  6  7  1  0
  6  8  1  0
  6  9  1  0
M  END
>  <Name>  (66) 
DL-2-Hydroxy-3,3-dimethylbutanoic_acid

>  <logK_Lu_z=3.0_T=25_I=0.1>  (66) 
2.86

$$$$

     RDKit          2D

  7  6  0  0  0  0  0  0  0  0999 V2000
    2.0490   -0.5490    0.0000 C   0  0  0  0  0  0  0  0  0  0  0  0
    1.2990    0.7500    0.0000 C   0  0  0  0  0  0  0  0  0  0  0  0
    0.5490    2.0490    0.0000 O   0  0  0  0  0  0  0  0  0  0  0  0
    0.0000    0.0000    0.0000 C   0  0  0  0  0  0  0  0  0  0  0  0
    2.5981    1.5000    0.0000 C   0  0  0  0  0  0  0  0  0  0  0  0
    3.5490   -0.5490    0.0000 O   0  0  0  0  0  0  0  0  0  0  0  0
    1.2990   -1.8481    0.0000 O   0  0  0  0  0  0  0  0  0  0  0  0
  1  2  1  0
  2  3  1  0
  2  4  1  0
  2  5  1  0
  1  6  1  0
  1  7  2  0
M  END
>  <Name>  (67) 
2-Hydroxy-2-methylpropanoic_acid

>  <logK_Lu_z=3.0_T=25_I=0.1>  (67) 
3.41

>  <logK_Lu_z=3.0_T=25_I=0.5>  (67) 
3.21

$$$$

     RDKit          2D

  9  8  0  0  0  0  0  0  0  0999 V2000
    1.8481   -1.2990    0.0000 O   0  0  0  0  0  0  0  0  0  0  0  0
    2.5981   -0.0000    0.0000 C   0  0  0  0  0  0  0  0  0  0  0  0
    3.3481    1.2990    0.0000 C   0  0  0  0  0  0  0  0  0  0  0  0
    2.5981    2.5981    0.0000 O   0  0  0  0  0  0  0  0  0  0  0  0
    4.8481    1.2990    0.0000 O   0  0  0  0  0  0  0  0  0  0  0  0
    1.2990    0.7500    0.0000 C   0  0  0  0  0  0  0  0  0  0  0  0
    0.0000    0.0000    0.0000 C   0  0  0  0  0  0  0  0  0  0  0  0
    3.8971   -0.7500    0.0000 C   0  0  0  0  0  0  0  0  0  0  0  0
    3.8971   -2.2500    0.0000 C   0  0  0  0  0  0  0  0  0  0  0  0
  1  2  1  0
  2  3  1  0
  3  4  2  0
  3  5  1  0
  2  6  1  0
  6  7  1  0
  2  8  1  0
  8  9  1  0
M  END
>  <Name>  (68) 
2-Hydroxy-2-ethylbutanoic_acid

>  <logK_Lu_z=3.0_T=25_I=0.1>  (68) 
3.25

$$$$

     RDKit          2D

  9  9  0  0  0  0  0  0  0  0999 V2000
    2.0788    2.4709    0.0000 O   0  0  0  0  0  0  0  0  0  0  0  0
    2.3907    1.0037    0.0000 C   0  0  0  0  0  0  0  0  0  0  0  0
    1.2760    0.0000    0.0000 C   0  0  0  0  0  0  0  0  0  0  0  0
    0.3943    1.2135    0.0000 C   0  0  0  0  0  0  0  0  0  0  0  0
   -1.0323    0.7500    0.0000 C   0  0  0  0  0  0  0  0  0  0  0  0
   -1.0323   -0.7500    0.0000 C   0  0  0  0  0  0  0  0  0  0  0  0
    0.3943   -1.2135    0.0000 C   0  0  0  0  0  0  0  0  0  0  0  0
    2.3907   -1.0037    0.0000 O   0  0  0  0  0  0  0  0  0  0  0  0
    3.8173    0.5402    0.0000 O   0  0  0  0  0  0  0  0  0  0  0  0
  1  2  2  0
  2  3  1  0
  3  4  1  0
  4  5  1  0
  5  6  1  0
  6  7  1  0
  3  8  1  0
  2  9  1  0
  7  3  1  0
M  END
>  <Name>  (69) 
1-Hydroxycyclopentanecarboxylic_acid

>  <logK_Lu_z=3.0_T=25_I=0.1>  (69) 
3.22

$$$$

     RDKit          2D

 10 10  0  0  0  0  0  0  0  0999 V2000
    2.6491   -0.9642    0.0000 O   0  0  0  0  0  0  0  0  0  0  0  0
    1.5000    0.0000    0.0000 C   0  0  0  0  0  0  0  0  0  0  0  0
    2.6491    0.9642    0.0000 C   0  0  0  0  0  0  0  0  0  0  0  0
    2.3886    2.4414    0.0000 O   0  0  0  0  0  0  0  0  0  0  0  0
    4.0586    0.4512    0.0000 O   0  0  0  0  0  0  0  0  0  0  0  0
    0.7500   -1.2990    0.0000 C   0  0  0  0  0  0  0  0  0  0  0  0
   -0.7500   -1.2990    0.0000 C   0  0  0  0  0  0  0  0  0  0  0  0
   -1.5000    0.0000    0.0000 C   0  0  0  0  0  0  0  0  0  0  0  0
   -0.7500    1.2990    0.0000 C   0  0  0  0  0  0  0  0  0  0  0  0
    0.7500    1.2990    0.0000 C   0  0  0  0  0  0  0  0  0  0  0  0
  1  2  1  0
  2  3  1  0
  3  4  2  0
  3  5  1  0
  2  6  1  0
  6  7  1  0
  7  8  1  0
  8  9  1  0
  9 10  1  0
 10  2  1  0
M  END
>  <Name>  (70) 
1-Hydroxycyclohexanecarboxylic_acid

>  <logK_Lu_z=3.0_T=25_I=0.1>  (70) 
2.78

$$$$

     RDKit          2D

 11 11  0  0  0  0  0  0  0  0999 V2000
    1.5000    0.0000    0.0000 C   0  0  0  0  0  0  0  0  0  0  0  0
    0.7500   -1.2990    0.0000 C   0  0  0  0  0  0  0  0  0  0  0  0
   -0.7500   -1.2990    0.0000 C   0  0  0  0  0  0  0  0  0  0  0  0
   -1.5000   -2.5981    0.0000 C   0  0  0  0  0  0  0  0  0  0  0  0
   -3.0000   -2.5981    0.0000 C   0  0  0  0  0  0  0  0  0  0  0  0
   -3.7500   -3.8971    0.0000 O   0  0  0  0  0  0  0  0  0  0  0  0
   -3.7500   -1.2990    0.0000 O   0  0  0  0  0  0  0  0  0  0  0  0
   -0.7500   -3.8971    0.0000 O   0  0  0  0  0  0  0  0  0  0  0  0
   -1.5000    0.0000    0.0000 C   0  0  0  0  0  0  0  0  0  0  0  0
   -0.7500    1.2990    0.0000 C   0  0  0  0  0  0  0  0  0  0  0  0
    0.7500    1.2990    0.0000 C   0  0  0  0  0  0  0  0  0  0  0  0
  1  2  2  0
  2  3  1  0
  3  4  1  0
  4  5  1  0
  5  6  1  0
  5  7  2  0
  4  8  1  0
  3  9  2  0
  9 10  1  0
 10 11  2  0
 11  1  1  0
M  END
>  <Name>  (71) 
L-Phenyl(hydroxy)acetic_acid_(Mandelic_acid)

>  <logK_Lu_z=3.0_T=25_I=0.1>  (71) 
2.82

>  <logK_Lu_z=3.0_T=25_I=2.0>  (71) 
2.77

$$$$

     RDKit          2D

  9  8  0  0  0  0  0  0  0  0999 V2000
    0.5490    2.0490    0.0000 O   0  0  0  0  0  0  0  0  0  0  0  0
    1.2990    0.7500    0.0000 C   0  0  0  0  0  0  0  0  0  0  0  0
    2.0490   -0.5490    0.0000 C   0  0  0  0  0  0  0  0  0  0  0  0
    1.2990   -1.8481    0.0000 O   0  0  0  0  0  0  0  0  0  0  0  0
    3.5490   -0.5490    0.0000 O   0  0  0  0  0  0  0  0  0  0  0  0
    0.0000    0.0000    0.0000 C   0  0  0  0  0  0  0  0  0  0  0  0
    2.5981    1.5000    0.0000 C   0  0  0  0  0  0  0  0  0  0  0  0
    2.5981    3.0000    0.0000 C   0  0  0  0  0  0  0  0  0  0  0  0
    3.8971    0.7500    0.0000 O   0  0  0  0  0  0  0  0  0  0  0  0
  1  2  1  0
  2  3  1  0
  3  4  2  0
  3  5  1  0
  2  6  1  0
  2  7  1  0
  7  8  1  0
  7  9  1  0
M  END
>  <Name>  (72) 
DL-2,3-Dihydroxy-2-methylbutanoic_acid

>  <logK_Lu_z=3.0_T=25_I=0.1>  (72) 
3.25

$$$$

     RDKit          2D

  9  8  0  0  0  0  0  0  0  0999 V2000
    0.5490    2.0490    0.0000 O   0  0  0  0  0  0  0  0  0  0  0  0
    1.2990    0.7500    0.0000 C   0  0  0  0  0  0  0  0  0  0  0  0
    2.0490   -0.5490    0.0000 C   0  0  0  0  0  0  0  0  0  0  0  0
    1.2990   -1.8481    0.0000 O   0  0  0  0  0  0  0  0  0  0  0  0
    3.5490   -0.5490    0.0000 O   0  0  0  0  0  0  0  0  0  0  0  0
    0.0000    0.0000    0.0000 C   0  0  0  0  0  0  0  0  0  0  0  0
   -1.2990    0.7500    0.0000 O   0  0  0  0  0  0  0  0  0  0  0  0
    2.5981    1.5000    0.0000 C   0  0  0  0  0  0  0  0  0  0  0  0
    2.5981    3.0000    0.0000 O   0  0  0  0  0  0  0  0  0  0  0  0
  1  2  1  0
  2  3  1  0
  3  4  2  0
  3  5  1  0
  2  6  1  0
  6  7  1  0
  2  8  1  0
  8  9  1  0
M  END
>  <Name>  (73) 
2,3-Dihydroxy-2-(hydroxymethyl)propanoic_acid

>  <logK_Lu_z=3.0_T=25_I=0.1>  (73) 
3.16

>  <logK_Lu_z=3.0_T=25_I=0.5>  (73) 
2.94

$$$$

     RDKit          2D

 13 12  0  0  0  0  0  0  0  0999 V2000
    3.8971    0.7500    0.0000 C   0  0  0  0  0  0  0  0  0  0  0  0
    3.8971    2.2500    0.0000 O   0  0  0  0  0  0  0  0  0  0  0  0
    5.1962   -0.0000    0.0000 C   0  0  0  0  0  0  0  0  0  0  0  0
    5.1962   -1.5000    0.0000 O   0  0  0  0  0  0  0  0  0  0  0  0
    6.4952    0.7500    0.0000 C   0  0  0  0  0  0  0  0  0  0  0  0
    6.4952    2.2500    0.0000 O   0  0  0  0  0  0  0  0  0  0  0  0
    7.7942   -0.0000    0.0000 O   0  0  0  0  0  0  0  0  0  0  0  0
    2.5981   -0.0000    0.0000 C   0  0  0  0  0  0  0  0  0  0  0  0
    2.5981   -1.5000    0.0000 O   0  0  0  0  0  0  0  0  0  0  0  0
    1.2990    0.7500    0.0000 C   0  0  0  0  0  0  0  0  0  0  0  0
    1.2990    2.2500    0.0000 O   0  0  0  0  0  0  0  0  0  0  0  0
    0.0000    0.0000    0.0000 C   0  0  0  0  0  0  0  0  0  0  0  0
   -1.2990    0.7500    0.0000 O   0  0  0  0  0  0  0  0  0  0  0  0
  1  2  1  6
  1  3  1  0
  3  4  1  6
  3  5  1  0
  5  6  2  0
  5  7  1  0
  1  8  1  0
  8  9  1  6
  8 10  1  0
 10 11  1  1
 10 12  1  0
 12 13  1  0
M  END
>  <Name>  (74) 
D-gluco-Pentahydroxyhexanoic_acid_(D-Gluconic_acid)

>  <logK_Lu_z=3.0_T=25_I=0.1>  (74) 
2.85

$$$$

     RDKit          2D

 13 13  0  0  0  0  0  0  0  0999 V2000
    1.5000    0.0000    0.0000 C   0  0  0  0  0  0  0  0  0  0  0  0
    0.7500   -1.2990    0.0000 C   0  0  0  0  0  0  0  0  0  0  0  0
    0.4895   -2.7762    0.0000 O   0  0  0  0  0  0  0  0  0  0  0  0
    2.1595   -1.8121    0.0000 C   0  0  0  0  0  0  0  0  0  0  0  0
    2.4200   -3.2893    0.0000 O   0  0  0  0  0  1  0  0  0  0  0  0
    3.3086   -0.8479    0.0000 O   0  0  0  0  0  0  0  0  0  0  0  0
   -0.7500   -1.2990    0.0000 C   0  0  0  0  0  0  0  0  0  0  0  0
   -1.5000    0.0000    0.0000 C   0  0  0  0  0  0  0  0  0  0  0  0
   -3.0000    0.0000    0.0000 O   0  0  0  0  0  0  0  0  0  0  0  0
   -0.7500    1.2990    0.0000 C   0  0  0  0  0  0  0  0  0  0  0  0
   -1.5000    2.5981    0.0000 O   0  0  0  0  0  0  0  0  0  0  0  0
    0.7500    1.2990    0.0000 C   0  0  0  0  0  0  0  0  0  0  0  0
    1.5000    2.5981    0.0000 O   0  0  0  0  0  0  0  0  0  0  0  0
  1  2  1  0
  2  3  1  0
  2  4  1  0
  4  5  1  0
  4  6  2  0
  2  7  1  0
  7  8  1  0
  8  9  1  1
  8 10  1  0
 10 11  1  0
 10 12  1  0
 12 13  1  6
 12  1  1  0
M  CHG  1   5  -1
M  END
>  <Name>  (75) 
(1R,3R,4R,5R)-(-)-1,3,4,5-Tetrahydroxcyclohexanecarboxylic_acid_(Quinic_acid)

>  <logK_Lu_z=3.0_T=25_I=0.1>  (75) 
2.95

$$$$

     RDKit          2D

  6  5  0  0  0  0  0  0  0  0999 V2000
   -1.2990    0.7500    0.0000 O   0  0  0  0  0  0  0  0  0  0  0  0
    0.0000    0.0000    0.0000 C   0  0  0  0  0  0  0  0  0  0  0  0
    1.2990    0.7500    0.0000 C   0  0  0  0  0  0  0  0  0  0  0  0
    2.5981   -0.0000    0.0000 C   0  0  0  0  0  0  0  0  0  0  0  0
    2.5981   -1.5000    0.0000 O   0  0  0  0  0  0  0  0  0  0  0  0
    3.8971    0.7500    0.0000 O   0  0  0  0  0  0  0  0  0  0  0  0
  1  2  1  0
  2  3  1  0
  3  4  1  0
  4  5  2  0
  4  6  1  0
M  END
>  <Name>  (76) 
3-Hydroxypropanoic_acid

>  <logK_Lu_z=3.0_T=25_I=0.1>  (76) 
1.97

>  <logK_Lu_z=3.0_T=25_I=2.0>  (76) 
1.4

$$$$

     RDKit          2D

  9  8  0  0  0  0  0  0  0  0999 V2000
    0.5490    2.0490    0.0000 C   0  0  0  0  0  0  0  0  0  0  0  0
   -0.9510    2.0490    0.0000 O   0  0  0  0  0  0  0  0  0  0  0  0
    1.2990    3.3481    0.0000 O   0  0  0  0  0  0  0  0  0  0  0  0
    1.2990    0.7500    0.0000 C   0  0  0  0  0  0  0  0  0  0  0  0
    0.0000    0.0000    0.0000 C   0  0  0  0  0  0  0  0  0  0  0  0
    2.5981    1.5000    0.0000 C   0  0  0  0  0  0  0  0  0  0  0  0
    2.5981    3.0000    0.0000 O   0  0  0  0  0  0  0  0  0  0  0  0
    2.0490   -0.5490    0.0000 C   0  0  0  0  0  0  0  0  0  0  0  0
    3.5490   -0.5490    0.0000 O   0  0  0  0  0  0  0  0  0  0  0  0
  1  2  2  0
  1  3  1  0
  1  4  1  0
  4  5  1  0
  4  6  1  0
  6  7  1  0
  4  8  1  0
  8  9  1  0
M  END
>  <Name>  (77) 
2,2-Bis(hydroxymethyl)propanoic_acid

>  <logK_Lu_z=3.0_T=25_I=0.1>  (77) 
2.37

$$$$

     RDKit          2D

  5  4  0  0  0  0  0  0  0  0999 V2000
    1.2990    2.2500    0.0000 O   0  0  0  0  0  0  0  0  0  0  0  0
    1.2990    0.7500    0.0000 C   0  0  0  0  0  0  0  0  0  0  0  0
    0.0000    0.0000    0.0000 C   0  0  0  0  0  0  0  0  0  0  0  0
   -1.2990    0.7500    0.0000 O   0  0  0  0  0  0  0  0  0  0  0  0
    2.5981   -0.0000    0.0000 O   0  0  0  0  0  0  0  0  0  0  0  0
  1  2  2  0
  2  3  1  0
  3  4  2  0
  2  5  1  0
M  END
>  <Name>  (78) 
Oxoacetic_acid_(Glyoxylic_acid)

>  <logK_Lu_z=3.0_T=20_I=0.1>  (78) 
2.68

$$$$

     RDKit          2D

  6  5  0  0  0  0  0  0  0  0999 V2000
    0.0000    0.0000    0.0000 C   0  0  0  0  0  0  0  0  0  0  0  0
    1.2990    0.7500    0.0000 C   0  0  0  0  0  0  0  0  0  0  0  0
    1.2990    2.2500    0.0000 O   0  0  0  0  0  0  0  0  0  0  0  0
    2.5981   -0.0000    0.0000 C   0  0  0  0  0  0  0  0  0  0  0  0
    2.5981   -1.5000    0.0000 O   0  0  0  0  0  0  0  0  0  0  0  0
    3.8971    0.7500    0.0000 O   0  0  0  0  0  0  0  0  0  0  0  0
  1  2  1  0
  2  3  2  0
  2  4  1  0
  4  5  2  0
  4  6  1  0
M  END
>  <Name>  (79) 
2-Oxopropanoic_acid_(Pyruvic_acid)

>  <logK_Lu_z=3.0_T=25_I=2.0>  (79) 
1.83

$$$$

     RDKit          2D

  6  5  0  0  0  0  0  0  0  0999 V2000
    3.8971    0.7500    0.0000 C   0  0  0  0  0  0  0  0  0  0  0  0
    2.5981   -0.0000    0.0000 C   0  0  0  0  0  0  0  0  0  0  0  0
    1.2990    0.7500    0.0000 O   0  0  0  0  0  0  0  0  0  0  0  0
    0.0000    0.0000    0.0000 C   0  0  0  0  0  0  0  0  0  0  0  0
    5.1962   -0.0000    0.0000 O   0  0  0  0  0  0  0  0  0  0  0  0
    3.8971    2.2500    0.0000 O   0  0  0  0  0  0  0  0  0  0  0  0
  1  2  1  0
  2  3  1  0
  3  4  1  0
  1  5  1  0
  1  6  2  0
M  END
>  <Name>  (80) 
Methoxyacetic_acid

>  <logK_Lu_z=3.0_T=20_I=0.1>  (80) 
2.09

$$$$

     RDKit          2D

  8  8  0  0  0  0  0  0  0  0999 V2000
    1.2760    0.0000    0.0000 C   0  0  0  0  0  0  0  0  0  0  0  0
    0.3943    1.2135    0.0000 C   0  0  0  0  0  0  0  0  0  0  0  0
   -1.0323    0.7500    0.0000 C   0  0  0  0  0  0  0  0  0  0  0  0
   -1.0323   -0.7500    0.0000 C   0  0  0  0  0  0  0  0  0  0  0  0
    0.3943   -1.2135    0.0000 O   0  0  0  0  0  0  0  0  0  0  0  0
    2.7760    0.0000    0.0000 C   0  0  0  0  0  0  0  0  0  0  0  0
    3.5260   -1.2990    0.0000 O   0  0  0  0  0  0  0  0  0  0  0  0
    3.5260    1.2990    0.0000 O   0  0  0  0  0  0  0  0  0  0  0  0
  1  2  2  0
  2  3  1  0
  3  4  2  0
  4  5  1  0
  1  6  1  0
  6  7  1  0
  6  8  2  0
  5  1  1  0
M  END
>  <Name>  (81) 
Oxole-2-carboxylic_acid_(2-Furoic_acid)

>  <logK_Lu_z=3.0_T=25_I=2.0>  (81) 
1.45

$$$$

     RDKit          2D

 11 11  0  0  0  0  0  0  0  0999 V2000
    3.7500    1.2990    0.0000 C   0  0  0  0  0  0  0  0  0  0  0  0
    3.0000    0.0000    0.0000 O   0  0  0  0  0  0  0  0  0  0  0  0
    1.5000    0.0000    0.0000 C   0  0  0  0  0  0  0  0  0  0  0  0
    0.7500   -1.2990    0.0000 C   0  0  0  0  0  0  0  0  0  0  0  0
    1.5000   -2.5981    0.0000 C   0  0  0  0  0  0  0  0  0  0  0  0
    0.7500   -3.8971    0.0000 O   0  0  0  0  0  0  0  0  0  0  0  0
    3.0000   -2.5981    0.0000 O   0  0  0  0  0  0  0  0  0  0  0  0
   -0.7500   -1.2990    0.0000 C   0  0  0  0  0  0  0  0  0  0  0  0
   -1.5000    0.0000    0.0000 C   0  0  0  0  0  0  0  0  0  0  0  0
   -0.7500    1.2990    0.0000 C   0  0  0  0  0  0  0  0  0  0  0  0
    0.7500    1.2990    0.0000 C   0  0  0  0  0  0  0  0  0  0  0  0
  1  2  1  0
  2  3  1  0
  3  4  2  0
  4  5  1  0
  5  6  1  0
  5  7  2  0
  4  8  1  0
  8  9  2  0
  9 10  1  0
 10 11  2  0
 11  3  1  0
M  END
>  <Name>  (82) 
2-Methoxybenzoic_acid

>  <logK_Lu_z=3.0_T=25_I=0.1>  (82) 
1.88

$$$$

     RDKit          2D

 11 11  0  0  0  0  0  0  0  0999 V2000
    3.7500   -1.2990    0.0000 C   0  0  0  0  0  0  0  0  0  0  0  0
    3.0000    0.0000    0.0000 O   0  0  0  0  0  0  0  0  0  0  0  0
    1.5000    0.0000    0.0000 C   0  0  0  0  0  0  0  0  0  0  0  0
    0.7500   -1.2990    0.0000 C   0  0  0  0  0  0  0  0  0  0  0  0
   -0.7500   -1.2990    0.0000 C   0  0  0  0  0  0  0  0  0  0  0  0
   -1.5000   -2.5981    0.0000 C   0  0  0  0  0  0  0  0  0  0  0  0
   -3.0000   -2.5981    0.0000 O   0  0  0  0  0  0  0  0  0  0  0  0
   -0.7500   -3.8971    0.0000 O   0  0  0  0  0  0  0  0  0  0  0  0
   -1.5000    0.0000    0.0000 C   0  0  0  0  0  0  0  0  0  0  0  0
   -0.7500    1.2990    0.0000 C   0  0  0  0  0  0  0  0  0  0  0  0
    0.7500    1.2990    0.0000 C   0  0  0  0  0  0  0  0  0  0  0  0
  1  2  1  0
  2  3  1  0
  3  4  2  0
  4  5  1  0
  5  6  1  0
  6  7  1  0
  6  8  2  0
  5  9  2  0
  9 10  1  0
 10 11  2  0
 11  3  1  0
M  END
>  <Name>  (83) 
3-Methoxybenzoic_acid

>  <logK_Lu_z=3.0_T=25_I=0.1>  (83) 
2.03

$$$$

     RDKit          2D

 11 11  0  0  0  0  0  0  0  0999 V2000
    3.7500   -1.2990    0.0000 C   0  0  0  0  0  0  0  0  0  0  0  0
    3.0000    0.0000    0.0000 O   0  0  0  0  0  0  0  0  0  0  0  0
    1.5000    0.0000    0.0000 C   0  0  0  0  0  0  0  0  0  0  0  0
    0.7500   -1.2990    0.0000 C   0  0  0  0  0  0  0  0  0  0  0  0
   -0.7500   -1.2990    0.0000 C   0  0  0  0  0  0  0  0  0  0  0  0
   -1.5000    0.0000    0.0000 C   0  0  0  0  0  0  0  0  0  0  0  0
   -3.0000    0.0000    0.0000 C   0  0  0  0  0  0  0  0  0  0  0  0
   -3.7500    1.2990    0.0000 O   0  0  0  0  0  0  0  0  0  0  0  0
   -3.7500   -1.2990    0.0000 O   0  0  0  0  0  0  0  0  0  0  0  0
   -0.7500    1.2990    0.0000 C   0  0  0  0  0  0  0  0  0  0  0  0
    0.7500    1.2990    0.0000 C   0  0  0  0  0  0  0  0  0  0  0  0
  1  2  1  0
  2  3  1  0
  3  4  2  0
  4  5  1  0
  5  6  2  0
  6  7  1  0
  7  8  1  0
  7  9  2  0
  6 10  1  0
 10 11  2  0
 11  3  1  0
M  END
>  <Name>  (84) 
4-Methoxybenzoic_acid_(p-Anisic_acid)

>  <logK_Lu_z=3.0_T=25_I=0.1>  (84) 
2.01

$$$$

     RDKit          2D

  6  5  0  0  0  0  0  0  0  0999 V2000
    0.0000    0.0000    0.0000 C   0  0  0  0  0  0  0  0  0  0  0  0
    1.2990    0.7500    0.0000 C   0  0  0  0  0  0  0  0  0  0  0  0
    2.5981   -0.0000    0.0000 O   0  0  0  0  0  0  0  0  0  0  0  0
    1.2990    2.2500    0.0000 O   0  0  0  0  0  0  0  0  0  0  0  0
   -1.2990    0.7500    0.0000 O   0  0  0  0  0  0  0  0  0  0  0  0
   -0.0000   -1.5000    0.0000 O   0  0  0  0  0  0  0  0  0  0  0  0
  1  2  1  0
  2  3  1  0
  2  4  2  0
  1  5  1  0
  1  6  2  0
M  END
>  <Name>  (85) 
Ethanedioic_acid_(Oxalic_acid)

>  <logK_Lu_z=3.0_T=20_I=1.0>  (85) 
5.28

$$$$

     RDKit          2D

  7  6  0  0  0  0  0  0  0  0999 V2000
    1.2990    2.2500    0.0000 O   0  0  0  0  0  0  0  0  0  0  0  0
    1.2990    0.7500    0.0000 C   0  0  0  0  0  0  0  0  0  0  0  0
    0.0000    0.0000    0.0000 C   0  0  0  0  0  0  0  0  0  0  0  0
   -1.2990    0.7500    0.0000 C   0  0  0  0  0  0  0  0  0  0  0  0
   -1.2990    2.2500    0.0000 O   0  0  0  0  0  0  0  0  0  0  0  0
   -2.5981    0.0000    0.0000 O   0  0  0  0  0  0  0  0  0  0  0  0
    2.5981   -0.0000    0.0000 O   0  0  0  0  0  0  0  0  0  0  0  0
  1  2  2  0
  2  3  1  0
  3  4  1  0
  4  5  2  0
  4  6  1  0
  2  7  1  0
M  END
>  <Name>  (86) 
Propanedioic_acid_(Malonic_acid)

>  <logK_Lu_z=3.0_T=25_I=0.1>  (86) 
4.45

>  <logK_Lu_z=3.0_T=25_I=1.0>  (86) 
3.89

$$$$

     RDKit          2D

  8  7  0  0  0  0  0  0  0  0999 V2000
    3.8971    0.7500    0.0000 O   0  0  0  0  0  0  0  0  0  0  0  0
    2.5981   -0.0000    0.0000 C   0  0  0  0  0  0  0  0  0  0  0  0
    1.2990    0.7500    0.0000 C   0  0  0  0  0  0  0  0  0  0  0  0
    1.2990    2.2500    0.0000 C   0  0  0  0  0  0  0  0  0  0  0  0
   -0.0000    3.0000    0.0000 O   0  0  0  0  0  0  0  0  0  0  0  0
    2.5981    3.0000    0.0000 O   0  0  0  0  0  0  0  0  0  0  0  0
    0.0000    0.0000    0.0000 C   0  0  0  0  0  0  0  0  0  0  0  0
    2.5981   -1.5000    0.0000 O   0  0  0  0  0  0  0  0  0  0  0  0
  1  2  1  0
  2  3  1  0
  3  4  1  0
  4  5  2  0
  4  6  1  0
  3  7  1  0
  2  8  2  0
M  END
>  <Name>  (87) 
Ethane-1,1-dicarboxylic_acid_(Methylmalonic_acid)

>  <logK_Lu_z=3.0_T=25_I=0.1>  (87) 
4.3

$$$$

     RDKit          2D

  9  8  0  0  0  0  0  0  0  0999 V2000
    5.1962   -0.0000    0.0000 O   0  0  0  0  0  0  0  0  0  0  0  0
    3.8971    0.7500    0.0000 C   0  0  0  0  0  0  0  0  0  0  0  0
    2.5981   -0.0000    0.0000 C   0  0  0  0  0  0  0  0  0  0  0  0
    2.5981   -1.5000    0.0000 C   0  0  0  0  0  0  0  0  0  0  0  0
    1.2990   -2.2500    0.0000 O   0  0  0  0  0  0  0  0  0  0  0  0
    3.8971   -2.2500    0.0000 O   0  0  0  0  0  0  0  0  0  0  0  0
    1.2990    0.7500    0.0000 C   0  0  0  0  0  0  0  0  0  0  0  0
    0.0000    0.0000    0.0000 C   0  0  0  0  0  0  0  0  0  0  0  0
    3.8971    2.2500    0.0000 O   0  0  0  0  0  0  0  0  0  0  0  0
  1  2  1  0
  2  3  1  0
  3  4  1  0
  4  5  2  0
  4  6  1  0
  3  7  1  0
  7  8  1  0
  2  9  2  0
M  END
>  <Name>  (88) 
Propane-1,1-dicarboxylic_acid_(Ethylmalonic_acid)

>  <logK_Lu_z=3.0_T=25_I=0.1>  (88) 
4.36

$$$$

     RDKit          2D

 10  9  0  0  0  0  0  0  0  0999 V2000
    6.4952    0.7500    0.0000 O   0  0  0  0  0  0  0  0  0  0  0  0
    5.1962   -0.0000    0.0000 C   0  0  0  0  0  0  0  0  0  0  0  0
    3.8971    0.7500    0.0000 C   0  0  0  0  0  0  0  0  0  0  0  0
    3.8971    2.2500    0.0000 C   0  0  0  0  0  0  0  0  0  0  0  0
    2.5981    3.0000    0.0000 O   0  0  0  0  0  0  0  0  0  0  0  0
    5.1962    3.0000    0.0000 O   0  0  0  0  0  0  0  0  0  0  0  0
    2.5981   -0.0000    0.0000 C   0  0  0  0  0  0  0  0  0  0  0  0
    1.2990    0.7500    0.0000 C   0  0  0  0  0  0  0  0  0  0  0  0
    0.0000    0.0000    0.0000 C   0  0  0  0  0  0  0  0  0  0  0  0
    5.1962   -1.5000    0.0000 O   0  0  0  0  0  0  0  0  0  0  0  0
  1  2  1  0
  2  3  1  0
  3  4  1  0
  4  5  2  0
  4  6  1  0
  3  7  1  0
  7  8  1  0
  8  9  1  0
  2 10  2  0
M  END
>  <Name>  (89) 
Butane-1,1-dicarboxylic_acid_(Propylmalonic_acid)

>  <logK_Lu_z=3.0_T=25_I=0.1>  (89) 
4.42

$$$$

     RDKit          2D

 11 10  0  0  0  0  0  0  0  0999 V2000
    0.0000    0.0000    0.0000 C   0  0  0  0  0  0  0  0  0  0  0  0
    1.2990    0.7500    0.0000 C   0  0  0  0  0  0  0  0  0  0  0  0
    2.5981   -0.0000    0.0000 C   0  0  0  0  0  0  0  0  0  0  0  0
    3.8971    0.7500    0.0000 C   0  0  0  0  0  0  0  0  0  0  0  0
    5.1962   -0.0000    0.0000 C   0  0  0  0  0  0  0  0  0  0  0  0
    6.4952    0.7500    0.0000 C   0  0  0  0  0  0  0  0  0  0  0  0
    6.4952    2.2500    0.0000 O   0  0  0  0  0  0  0  0  0  0  0  0
    7.7942   -0.0000    0.0000 O   0  0  0  0  0  0  0  0  0  0  0  0
    5.1962   -1.5000    0.0000 C   0  0  0  0  0  0  0  0  0  0  0  0
    3.8971   -2.2500    0.0000 O   0  0  0  0  0  0  0  0  0  0  0  0
    6.4952   -2.2500    0.0000 O   0  0  0  0  0  0  0  0  0  0  0  0
  1  2  1  0
  2  3  1  0
  3  4  1  0
  4  5  1  0
  5  6  1  0
  6  7  2  0
  6  8  1  0
  5  9  1  0
  9 10  2  0
  9 11  1  0
M  END
>  <Name>  (90) 
Pentane-1,1-dicarboxylic_acid_(Butylmalonic_acid)

>  <logK_Lu_z=3.0_T=25_I=0.1>  (90) 
4.36

$$$$

     RDKit          2D

 12 11  0  0  0  0  0  0  0  0999 V2000
    9.0933    0.7500    0.0000 O   0  0  0  0  0  0  0  0  0  0  0  0
    7.7942   -0.0000    0.0000 C   0  0  0  0  0  0  0  0  0  0  0  0
    6.4952    0.7500    0.0000 C   0  0  0  0  0  0  0  0  0  0  0  0
    6.4952    2.2500    0.0000 C   0  0  0  0  0  0  0  0  0  0  0  0
    5.1962    3.0000    0.0000 O   0  0  0  0  0  0  0  0  0  0  0  0
    7.7942    3.0000    0.0000 O   0  0  0  0  0  0  0  0  0  0  0  0
    5.1962   -0.0000    0.0000 C   0  0  0  0  0  0  0  0  0  0  0  0
    3.8971    0.7500    0.0000 C   0  0  0  0  0  0  0  0  0  0  0  0
    2.5981   -0.0000    0.0000 C   0  0  0  0  0  0  0  0  0  0  0  0
    1.2990    0.7500    0.0000 C   0  0  0  0  0  0  0  0  0  0  0  0
    0.0000    0.0000    0.0000 C   0  0  0  0  0  0  0  0  0  0  0  0
    7.7942   -1.5000    0.0000 O   0  0  0  0  0  0  0  0  0  0  0  0
  1  2  1  0
  2  3  1  0
  3  4  1  0
  4  5  2  0
  4  6  1  0
  3  7  1  0
  7  8  1  0
  8  9  1  0
  9 10  1  0
 10 11  1  0
  2 12  2  0
M  END
>  <Name>  (91) 
Hexane-1,1-dicarboxylic_acid_(Pentylmalonic_acid)

>  <logK_Lu_z=3.0_T=25_I=0.1>  (91) 
4.43

$$$$

     RDKit          2D

  9  8  0  0  0  0  0  0  0  0999 V2000
    1.2990    0.7500    0.0000 C   0  0  0  0  0  0  0  0  0  0  0  0
    0.0000    0.0000    0.0000 C   0  0  0  0  0  0  0  0  0  0  0  0
    2.5981    1.5000    0.0000 C   0  0  0  0  0  0  0  0  0  0  0  0
    2.0490   -0.5490    0.0000 C   0  0  0  0  0  0  0  0  0  0  0  0
    1.2990   -1.8481    0.0000 O   0  0  0  0  0  0  0  0  0  0  0  0
    3.5490   -0.5490    0.0000 O   0  0  0  0  0  0  0  0  0  0  0  0
    0.5490    2.0490    0.0000 C   0  0  0  0  0  0  0  0  0  0  0  0
   -0.9510    2.0490    0.0000 O   0  0  0  0  0  0  0  0  0  0  0  0
    1.2990    3.3481    0.0000 O   0  0  0  0  0  0  0  0  0  0  0  0
  1  2  1  0
  1  3  1  0
  1  4  1  0
  4  5  2  0
  4  6  1  0
  1  7  1  0
  7  8  2  0
  7  9  1  0
M  END
>  <Name>  (92) 
Propane-2,2-dicarboxylic_acid_(Dimethylmalonic_acid)

>  <logK_Lu_z=3.0_T=25_I=0.1>  (92) 
4.17

$$$$

     RDKit          2D

 11 10  0  0  0  0  0  0  0  0999 V2000
    2.5981    2.5981    0.0000 O   0  0  0  0  0  0  0  0  0  0  0  0
    3.3481    1.2990    0.0000 C   0  0  0  0  0  0  0  0  0  0  0  0
    2.5981   -0.0000    0.0000 C   0  0  0  0  0  0  0  0  0  0  0  0
    1.2990    0.7500    0.0000 C   0  0  0  0  0  0  0  0  0  0  0  0
    0.0000    0.0000    0.0000 C   0  0  0  0  0  0  0  0  0  0  0  0
    3.8971   -0.7500    0.0000 C   0  0  0  0  0  0  0  0  0  0  0  0
    3.8971   -2.2500    0.0000 C   0  0  0  0  0  0  0  0  0  0  0  0
    1.8481   -1.2990    0.0000 C   0  0  0  0  0  0  0  0  0  0  0  0
    2.5981   -2.5981    0.0000 O   0  0  0  0  0  0  0  0  0  0  0  0
    0.3481   -1.2990    0.0000 O   0  0  0  0  0  0  0  0  0  0  0  0
    4.8481    1.2990    0.0000 O   0  0  0  0  0  0  0  0  0  0  0  0
  1  2  2  0
  2  3  1  0
  3  4  1  0
  4  5  1  0
  3  6  1  0
  6  7  1  0
  3  8  1  0
  8  9  1  0
  8 10  2  0
  2 11  1  0
M  END
>  <Name>  (93) 
Pentane-3,3-dicarboxylic_acid_(Diethylmalonic_acid)

>  <logK_Lu_z=3.0_T=25_I=0.1>  (93) 
4.69

$$$$

     RDKit          2D

 13 12  0  0  0  0  0  0  0  0999 V2000
    6.1471   -0.5490    0.0000 O   0  0  0  0  0  0  0  0  0  0  0  0
    4.6471   -0.5490    0.0000 C   0  0  0  0  0  0  0  0  0  0  0  0
    3.8971    0.7500    0.0000 C   0  0  0  0  0  0  0  0  0  0  0  0
    3.1471    2.0490    0.0000 C   0  0  0  0  0  0  0  0  0  0  0  0
    1.6471    2.0490    0.0000 O   0  0  0  0  0  0  0  0  0  0  0  0
    3.8971    3.3481    0.0000 O   0  0  0  0  0  0  0  0  0  0  0  0
    2.5981   -0.0000    0.0000 C   0  0  0  0  0  0  0  0  0  0  0  0
    1.2990    0.7500    0.0000 C   0  0  0  0  0  0  0  0  0  0  0  0
    0.0000    0.0000    0.0000 C   0  0  0  0  0  0  0  0  0  0  0  0
    5.1962    1.5000    0.0000 C   0  0  0  0  0  0  0  0  0  0  0  0
    5.1962    3.0000    0.0000 C   0  0  0  0  0  0  0  0  0  0  0  0
    6.4952    3.7500    0.0000 C   0  0  0  0  0  0  0  0  0  0  0  0
    3.8971   -1.8481    0.0000 O   0  0  0  0  0  0  0  0  0  0  0  0
  1  2  1  0
  2  3  1  0
  3  4  1  0
  4  5  2  0
  4  6  1  0
  3  7  1  0
  7  8  1  0
  8  9  1  0
  3 10  1  0
 10 11  1  0
 11 12  1  0
  2 13  2  0
M  END
>  <Name>  (94) 
Heptane-4,4-dicarboxylic_acid_(Dipropylmalonic_acid)

>  <logK_Lu_z=3.0_T=25_I=0.1>  (94) 
4.78

$$$$

     RDKit          2D

 15 14  0  0  0  0  0  0  0  0999 V2000
    7.4462    1.2990    0.0000 O   0  0  0  0  0  0  0  0  0  0  0  0
    5.9462    1.2990    0.0000 C   0  0  0  0  0  0  0  0  0  0  0  0
    5.1962   -0.0000    0.0000 C   0  0  0  0  0  0  0  0  0  0  0  0
    4.4462   -1.2990    0.0000 C   0  0  0  0  0  0  0  0  0  0  0  0
    2.9462   -1.2990    0.0000 O   0  0  0  0  0  0  0  0  0  0  0  0
    5.1962   -2.5981    0.0000 O   0  0  0  0  0  0  0  0  0  0  0  0
    3.8971    0.7500    0.0000 C   0  0  0  0  0  0  0  0  0  0  0  0
    2.5981   -0.0000    0.0000 C   0  0  0  0  0  0  0  0  0  0  0  0
    1.2990    0.7500    0.0000 C   0  0  0  0  0  0  0  0  0  0  0  0
    0.0000    0.0000    0.0000 C   0  0  0  0  0  0  0  0  0  0  0  0
    6.4952   -0.7500    0.0000 C   0  0  0  0  0  0  0  0  0  0  0  0
    6.4952   -2.2500    0.0000 C   0  0  0  0  0  0  0  0  0  0  0  0
    7.7942   -3.0000    0.0000 C   0  0  0  0  0  0  0  0  0  0  0  0
    7.7942   -4.5000    0.0000 C   0  0  0  0  0  0  0  0  0  0  0  0
    5.1962    2.5981    0.0000 O   0  0  0  0  0  0  0  0  0  0  0  0
  1  2  1  0
  2  3  1  0
  3  4  1  0
  4  5  2  0
  4  6  1  0
  3  7  1  0
  7  8  1  0
  8  9  1  0
  9 10  1  0
  3 11  1  0
 11 12  1  0
 12 13  1  0
 13 14  1  0
  2 15  2  0
M  END
>  <Name>  (95) 
Nonane-5,5-dicarboxylic_acid_(Dibutylmalonic_acid)

>  <logK_Lu_z=3.0_T=25_I=0.1>  (95) 
4.78

$$$$

     RDKit          2D

 10 10  0  0  0  0  0  0  0  0999 V2000
    1.7331    2.5095    0.0000 O   0  0  0  0  0  0  0  0  0  0  0  0
    2.1213    1.0607    0.0000 C   0  0  0  0  0  0  0  0  0  0  0  0
    1.0607    0.0000    0.0000 C   0  0  0  0  0  0  0  0  0  0  0  0
   -0.0000   -1.0607    0.0000 C   0  0  0  0  0  0  0  0  0  0  0  0
   -1.0607    0.0000    0.0000 C   0  0  0  0  0  0  0  0  0  0  0  0
    0.0000    1.0607    0.0000 C   0  0  0  0  0  0  0  0  0  0  0  0
    2.1213   -1.0607    0.0000 C   0  0  0  0  0  0  0  0  0  0  0  0
    1.7331   -2.5095    0.0000 O   0  0  0  0  0  0  0  0  0  0  0  0
    3.5702   -0.6724    0.0000 O   0  0  0  0  0  0  0  0  0  0  0  0
    3.5702    0.6724    0.0000 O   0  0  0  0  0  0  0  0  0  0  0  0
  1  2  2  0
  2  3  1  0
  3  4  1  0
  4  5  1  0
  5  6  1  0
  3  7  1  0
  7  8  1  0
  7  9  2  0
  2 10  1  0
  6  3  1  0
M  END
>  <Name>  (96) 
Cyclobutane-1,1-dicarboxylic_acid

>  <logK_Lu_z=3.0_T=25_I=0.1>  (96) 
4.05

$$$$

     RDKit          2D

 11 11  0  0  0  0  0  0  0  0999 V2000
    2.0788    2.4709    0.0000 O   0  0  0  0  0  0  0  0  0  0  0  0
    2.3907    1.0037    0.0000 C   0  0  0  0  0  0  0  0  0  0  0  0
    1.2760    0.0000    0.0000 C   0  0  0  0  0  0  0  0  0  0  0  0
    0.3943    1.2135    0.0000 C   0  0  0  0  0  0  0  0  0  0  0  0
   -1.0323    0.7500    0.0000 C   0  0  0  0  0  0  0  0  0  0  0  0
   -1.0323   -0.7500    0.0000 C   0  0  0  0  0  0  0  0  0  0  0  0
    0.3943   -1.2135    0.0000 C   0  0  0  0  0  0  0  0  0  0  0  0
    2.3907   -1.0037    0.0000 C   0  0  0  0  0  0  0  0  0  0  0  0
    2.0788   -2.4709    0.0000 O   0  0  0  0  0  0  0  0  0  0  0  0
    3.8173   -0.5402    0.0000 O   0  0  0  0  0  0  0  0  0  0  0  0
    3.8173    0.5402    0.0000 O   0  0  0  0  0  0  0  0  0  0  0  0
  1  2  2  0
  2  3  1  0
  3  4  1  0
  4  5  1  0
  5  6  1  0
  6  7  1  0
  3  8  1  0
  8  9  1  0
  8 10  2  0
  2 11  1  0
  7  3  1  0
M  END
>  <Name>  (97) 
Cyclopentane-1,1-dicarboxylic_acid

>  <logK_Lu_z=3.0_T=25_I=0.1>  (97) 
4.22

$$$$

     RDKit          2D

  8  7  0  0  0  0  0  0  0  0999 V2000
   -1.2990    0.7500    0.0000 C   0  0  0  0  0  0  0  0  0  0  0  0
    0.0000    0.0000    0.0000 C   0  0  0  0  0  0  0  0  0  0  0  0
    1.2990    0.7500    0.0000 C   0  0  0  0  0  0  0  0  0  0  0  0
    2.5981   -0.0000    0.0000 C   0  0  0  0  0  0  0  0  0  0  0  0
    2.5981   -1.5000    0.0000 O   0  0  0  0  0  0  0  0  0  0  0  0
    3.8971    0.7500    0.0000 O   0  0  0  0  0  0  0  0  0  0  0  0
   -1.2990    2.2500    0.0000 O   0  0  0  0  0  0  0  0  0  0  0  0
   -2.5981    0.0000    0.0000 O   0  0  0  0  0  0  0  0  0  0  0  0
  1  2  1  0
  2  3  1  0
  3  4  1  0
  4  5  2  0
  4  6  1  0
  1  7  2  0
  1  8  1  0
M  END
>  <Name>  (98) 
Butanedioic_acid_(Succinic_acid)

>  <logK_Lu_z=3.0_T=25_I=0.1>  (98) 
3.31

$$$$

     RDKit          2D

  9  8  0  0  0  0  0  0  0  0999 V2000
    0.0000    0.0000    0.0000 C   0  0  0  0  0  0  0  0  0  0  0  0
    1.2990    0.7500    0.0000 C   0  0  0  0  0  0  0  0  0  0  0  0
    1.2990    2.2500    0.0000 C   0  0  0  0  0  0  0  0  0  0  0  0
   -0.0000    3.0000    0.0000 O   0  0  0  0  0  0  0  0  0  0  0  0
    2.5981    3.0000    0.0000 O   0  0  0  0  0  0  0  0  0  0  0  0
    2.5981   -0.0000    0.0000 C   0  0  0  0  0  0  0  0  0  0  0  0
    3.8971    0.7500    0.0000 C   0  0  0  0  0  0  0  0  0  0  0  0
    3.8971    2.2500    0.0000 O   0  0  0  0  0  0  0  0  0  0  0  0
    5.1962   -0.0000    0.0000 O   0  0  0  0  0  0  0  0  0  0  0  0
  1  2  1  0
  2  3  1  0
  3  4  2  0
  3  5  1  0
  2  6  1  0
  6  7  1  0
  7  8  2  0
  7  9  1  0
M  END
>  <Name>  (99) 
DL-Propane-1,2-dicarboxylic_acid_(Methylsuccinic_acid)

>  <logK_Lu_z=3.0_T=25_I=0.1>  (99) 
3.06

$$$$

     RDKit          2D

  8  7  0  0  0  0  0  0  0  0999 V2000
    0.0000   -2.5981    0.0000 O   0  0  0  0  0  0  0  0  0  0  0  0
   -0.7500   -1.2990    0.0000 C   0  0  0  0  0  0  0  0  0  0  0  0
    0.0000    0.0000    0.0000 C   0  0  0  0  0  0  0  0  0  0  0  0
    1.5000    0.0000    0.0000 C   0  0  0  0  0  0  0  0  0  0  0  0
    2.2500   -1.2990    0.0000 C   0  0  0  0  0  0  0  0  0  0  0  0
    1.5000   -2.5981    0.0000 O   0  0  0  0  0  0  0  0  0  0  0  0
    3.7500   -1.2990    0.0000 O   0  0  0  0  0  0  0  0  0  0  0  0
   -2.2500   -1.2990    0.0000 O   0  0  0  0  0  0  0  0  0  0  0  0
  1  2  2  0
  2  3  1  0
  3  4  2  0
  4  5  1  0
  5  6  2  0
  5  7  1  0
  2  8  1  0
M  END
>  <Name>  (100) 
cis-Butenedioic_acid_(Maleic_acid)

>  <logK_Lu_z=3.0_T=25_I=0.1>  (100) 
3.6

$$$$

     RDKit          2D

  8  7  0  0  0  0  0  0  0  0999 V2000
   -2.2500   -1.2990    0.0000 O   0  0  0  0  0  0  0  0  0  0  0  0
   -0.7500   -1.2990    0.0000 C   0  0  0  0  0  0  0  0  0  0  0  0
    0.0000   -2.5981    0.0000 O   0  0  0  0  0  0  0  0  0  0  0  0
    0.0000    0.0000    0.0000 C   0  0  0  0  0  0  0  0  0  0  0  0
    1.5000    0.0000    0.0000 C   0  0  0  0  0  0  0  0  0  0  0  0
    2.2500    1.2990    0.0000 C   0  0  0  0  0  0  0  0  0  0  0  0
    1.5000    2.5981    0.0000 O   0  0  0  0  0  0  0  0  0  0  0  0
    3.7500    1.2990    0.0000 O   0  0  0  0  0  0  0  0  0  0  0  0
  1  2  1  0
  2  3  2  0
  2  4  1  0
  4  5  2  0
  5  6  1  0
  6  7  2  0
  6  8  1  0
M  END
>  <Name>  (101) 
trans-Butenedioic_acid_(Fumaric_acid)

>  <logK_Lu_z=3.0_T=25_I=0.1>  (101) 
2.47

$$$$

     RDKit          2D

  9  8  0  0  0  0  0  0  0  0999 V2000
   -2.5981    0.0000    0.0000 O   0  0  0  0  0  0  0  0  0  0  0  0
   -1.2990    0.7500    0.0000 C   0  0  0  0  0  0  0  0  0  0  0  0
   -1.2990    2.2500    0.0000 O   0  0  0  0  0  0  0  0  0  0  0  0
    0.0000    0.0000    0.0000 C   0  0  0  0  0  0  0  0  0  0  0  0
    1.2990    0.7500    0.0000 C   0  0  0  0  0  0  0  0  0  0  0  0
    2.5981   -0.0000    0.0000 C   0  0  0  0  0  0  0  0  0  0  0  0
    3.8971    0.7500    0.0000 C   0  0  0  0  0  0  0  0  0  0  0  0
    3.8971    2.2500    0.0000 O   0  0  0  0  0  0  0  0  0  0  0  0
    5.1962   -0.0000    0.0000 O   0  0  0  0  0  0  0  0  0  0  0  0
  1  2  1  0
  2  3  2  0
  2  4  1  0
  4  5  1  0
  5  6  1  0
  6  7  1  0
  7  8  2  0
  7  9  1  0
M  END
>  <Name>  (102) 
Pentanedioic_acid_(Glutaric_acid)

>  <logK_Lu_z=3.0_T=25_I=0.1>  (102) 
3.16

$$$$

     RDKit          2D

 10  9  0  0  0  0  0  0  0  0999 V2000
   -2.5981    0.0000    0.0000 O   0  0  0  0  0  0  0  0  0  0  0  0
   -1.2990    0.7500    0.0000 C   0  0  0  0  0  0  0  0  0  0  0  0
   -1.2990    2.2500    0.0000 O   0  0  0  0  0  0  0  0  0  0  0  0
    0.0000    0.0000    0.0000 C   0  0  0  0  0  0  0  0  0  0  0  0
    1.2990    0.7500    0.0000 C   0  0  0  0  0  0  0  0  0  0  0  0
    2.5981   -0.0000    0.0000 C   0  0  0  0  0  0  0  0  0  0  0  0
    3.8971    0.7500    0.0000 C   0  0  0  0  0  0  0  0  0  0  0  0
    5.1962   -0.0000    0.0000 C   0  0  0  0  0  0  0  0  0  0  0  0
    5.1962   -1.5000    0.0000 O   0  0  0  0  0  0  0  0  0  0  0  0
    6.4952    0.7500    0.0000 O   0  0  0  0  0  0  0  0  0  0  0  0
  1  2  1  0
  2  3  2  0
  2  4  1  0
  4  5  1  0
  5  6  1  0
  6  7  1  0
  7  8  1  0
  8  9  2  0
  8 10  1  0
M  END
>  <Name>  (103) 
Hexanedioic_acid_(Adipic_acid)

>  <logK_Lu_z=3.0_T=25_I=0.1>  (103) 
3.09

$$$$

     RDKit          2D

  0  0  0  0  0  0  0  0  0  0999 V3000
M  V30 BEGIN CTAB
M  V30 COUNTS 12 12 0 0 0
M  V30 BEGIN ATOM
M  V30 1 O 3.750000 -1.299038 0.000000 0
M  V30 2 C 3.000000 0.000000 0.000000 0
M  V30 3 C 1.500000 0.000000 0.000000 0
M  V30 4 C 0.750000 -1.299038 0.000000 0
M  V30 5 C -0.750000 -1.299038 0.000000 0
M  V30 6 C -1.500000 0.000000 0.000000 0
M  V30 7 C -3.000000 0.000000 0.000000 0
M  V30 8 O -3.750000 1.299038 0.000000 0
M  V30 9 O -3.750000 -1.299038 0.000000 0
M  V30 10 C -0.750000 1.299038 0.000000 0
M  V30 11 C 0.750000 1.299038 0.000000 0
M  V30 12 O 3.750000 1.299038 0.000000 0
M  V30 END ATOM
M  V30 BEGIN BOND
M  V30 1 1 1 2
M  V30 2 1 3 2 CFG=1
M  V30 3 1 3 4
M  V30 4 1 4 5
M  V30 5 1 5 6
M  V30 6 1 6 7 CFG=3
M  V30 7 1 7 8
M  V30 8 2 7 9
M  V30 9 1 6 10
M  V30 10 1 10 11
M  V30 11 2 2 12
M  V30 12 1 11 3
M  V30 END BOND
M  V30 BEGIN COLLECTION
M  V30 MDLV30/STERAC1 ATOMS=(2 3 6)
M  V30 END COLLECTION
M  V30 END CTAB
M  END
>  <_CXSMILES_Data>  (104) 
|&1:2,5,r|

>  <Name>  (104) 
trans-Cyclohexane-1,4-dicarboxylic_acid

>  <logK_Lu_z=3.0_T=25_I=0.1>  (104) 
4.35

$$$$

     RDKit          2D

 12 12  0  0  0  0  0  0  0  0999 V2000
    3.7500   -1.2990    0.0000 O   0  0  0  0  0  0  0  0  0  0  0  0
    3.0000    0.0000    0.0000 C   0  0  0  0  0  0  0  0  0  0  0  0
    3.7500    1.2990    0.0000 O   0  0  0  0  0  0  0  0  0  0  0  0
    1.5000    0.0000    0.0000 C   0  0  0  0  0  0  0  0  0  0  0  0
    0.7500   -1.2990    0.0000 C   0  0  0  0  0  0  0  0  0  0  0  0
    1.5000   -2.5981    0.0000 C   0  0  0  0  0  0  0  0  0  0  0  0
    3.0000   -2.5981    0.0000 O   0  0  0  0  0  0  0  0  0  0  0  0
    0.7500   -3.8971    0.0000 O   0  0  0  0  0  0  0  0  0  0  0  0
   -0.7500   -1.2990    0.0000 C   0  0  0  0  0  0  0  0  0  0  0  0
   -1.5000    0.0000    0.0000 C   0  0  0  0  0  0  0  0  0  0  0  0
   -0.7500    1.2990    0.0000 C   0  0  0  0  0  0  0  0  0  0  0  0
    0.7500    1.2990    0.0000 C   0  0  0  0  0  0  0  0  0  0  0  0
  1  2  1  0
  2  3  2  0
  2  4  1  0
  4  5  2  0
  5  6  1  0
  6  7  2  0
  6  8  1  0
  5  9  1  0
  9 10  2  0
 10 11  1  0
 11 12  2  0
 12  4  1  0
M  END
>  <Name>  (105) 
Benzene-1,2-dicarboxylic_acid_(Phthalic_acid)

>  <logK_Lu_z=3.0_T=25_I=0.1>  (105) 
3.65

$$$$

     RDKit          2D

 12 12  0  0  0  0  0  0  0  0999 V2000
    3.7500   -1.2990    0.0000 O   0  0  0  0  0  0  0  0  0  0  0  0
    3.0000    0.0000    0.0000 C   0  0  0  0  0  0  0  0  0  0  0  0
    3.7500    1.2990    0.0000 O   0  0  0  0  0  0  0  0  0  0  0  0
    1.5000    0.0000    0.0000 C   0  0  0  0  0  0  0  0  0  0  0  0
    0.7500   -1.2990    0.0000 C   0  0  0  0  0  0  0  0  0  0  0  0
   -0.7500   -1.2990    0.0000 C   0  0  0  0  0  0  0  0  0  0  0  0
   -1.5000    0.0000    0.0000 C   0  0  0  0  0  0  0  0  0  0  0  0
   -0.7500    1.2990    0.0000 C   0  0  0  0  0  0  0  0  0  0  0  0
   -1.5000    2.5981    0.0000 C   0  0  0  0  0  0  0  0  0  0  0  0
   -3.0000    2.5981    0.0000 O   0  0  0  0  0  0  0  0  0  0  0  0
   -0.7500    3.8971    0.0000 O   0  0  0  0  0  0  0  0  0  0  0  0
    0.7500    1.2990    0.0000 C   0  0  0  0  0  0  0  0  0  0  0  0
  1  2  1  0
  2  3  2  0
  2  4  1  0
  4  5  2  0
  5  6  1  0
  6  7  2  0
  7  8  1  0
  8  9  1  0
  9 10  2  0
  9 11  1  0
  8 12  2  0
 12  4  1  0
M  END
>  <Name>  (106) 
Benzene-1,3-dicarboxylic_acid_(Isophthalic_acid)

>  <logK_Lu_z=3.0_T=25_I=0.1>  (106) 
2.58

$$$$

     RDKit          2D

  9  8  0  0  0  0  0  0  0  0999 V2000
    1.2990    0.7500    0.0000 C   0  0  0  0  0  0  0  0  0  0  0  0
    1.2990    2.2500    0.0000 O   0  0  0  0  0  0  0  0  0  0  0  0
    0.0000    0.0000    0.0000 C   0  0  0  0  0  0  0  0  0  0  0  0
   -1.2990    0.7500    0.0000 C   0  0  0  0  0  0  0  0  0  0  0  0
   -2.5981    0.0000    0.0000 O   0  0  0  0  0  0  0  0  0  0  0  0
   -1.2990    2.2500    0.0000 O   0  0  0  0  0  0  0  0  0  0  0  0
    2.5981   -0.0000    0.0000 C   0  0  0  0  0  0  0  0  0  0  0  0
    3.8971    0.7500    0.0000 O   0  0  0  0  0  0  0  0  0  0  0  0
    2.5981   -1.5000    0.0000 O   0  0  0  0  0  0  0  0  0  0  0  0
  1  2  1  6
  1  3  1  0
  3  4  1  0
  4  5  1  0
  4  6  2  0
  1  7  1  0
  7  8  1  0
  7  9  2  0
M  END
>  <Name>  (107) 
L-Hydroxybutanedioic_acid_(Hydroxysuccinic_acid)(Malic_acid)

>  <logK_Lu_z=3.0_T=25_I=0.1>  (107) 
5.08

$$$$

     RDKit          2D

 10  9  0  0  0  0  0  0  0  0999 V2000
    0.0000    0.0000    0.0000 C   0  0  0  0  0  0  0  0  0  0  0  0
   -0.0000   -1.5000    0.0000 O   0  0  0  0  0  0  0  0  0  0  0  0
   -1.2990    0.7500    0.0000 C   0  0  0  0  0  0  0  0  0  0  0  0
   -2.5981    0.0000    0.0000 O   0  0  0  0  0  0  0  0  0  0  0  0
   -1.2990    2.2500    0.0000 O   0  0  0  0  0  0  0  0  0  0  0  0
    1.2990    0.7500    0.0000 C   0  0  0  0  0  0  0  0  0  0  0  0
    1.2990    2.2500    0.0000 O   0  0  0  0  0  0  0  0  0  0  0  0
    2.5981   -0.0000    0.0000 C   0  0  0  0  0  0  0  0  0  0  0  0
    3.8971    0.7500    0.0000 O   0  0  0  0  0  0  0  0  0  0  0  0
    2.5981   -1.5000    0.0000 O   0  0  0  0  0  0  0  0  0  0  0  0
  1  2  1  1
  1  3  1  0
  3  4  1  0
  3  5  2  0
  1  6  1  0
  6  7  1  1
  6  8  1  0
  8  9  1  0
  8 10  2  0
M  END
>  <Name>  (108) 
D-2,3-Dihydroxybutanedioic_acid_(D-Tartaric_acid)

>  <logK_Lu_z=3.0_T=25_I=0.1>  (108) 
4.32

$$$$

     RDKit          2D

  9  8  0  0  0  0  0  0  0  0999 V2000
    3.8971    0.7500    0.0000 O   0  0  0  0  0  0  0  0  0  0  0  0
    2.5981   -0.0000    0.0000 C   0  0  0  0  0  0  0  0  0  0  0  0
    2.5981   -1.5000    0.0000 O   0  0  0  0  0  0  0  0  0  0  0  0
    1.2990    0.7500    0.0000 C   0  0  0  0  0  0  0  0  0  0  0  0
    1.2990    2.2500    0.0000 O   0  0  0  0  0  0  0  0  0  0  0  0
    0.0000    0.0000    0.0000 C   0  0  0  0  0  0  0  0  0  0  0  0
   -1.2990    0.7500    0.0000 C   0  0  0  0  0  0  0  0  0  0  0  0
   -1.2990    2.2500    0.0000 O   0  0  0  0  0  0  0  0  0  0  0  0
   -2.5981    0.0000    0.0000 O   0  0  0  0  0  0  0  0  0  0  0  0
  1  2  1  0
  2  3  2  0
  2  4  1  0
  4  5  2  0
  4  6  1  0
  6  7  1  0
  7  8  2  0
  7  9  1  0
M  END
>  <Name>  (109) 
Oxobutanedioic_acid_(Oxaloacetic_acid)

>  <logK_Lu_z=3.0_T=25_I=0.0>  (109) 
5.88

$$$$

     RDKit          2D

  9  8  0  0  0  0  0  0  0  0999 V2000
    1.2990    0.7500    0.0000 C   0  0  0  0  0  0  0  0  0  0  0  0
    0.0000    0.0000    0.0000 C   0  0  0  0  0  0  0  0  0  0  0  0
   -1.2990    0.7500    0.0000 O   0  0  0  0  0  0  0  0  0  0  0  0
   -2.5981    0.0000    0.0000 C   0  0  0  0  0  0  0  0  0  0  0  0
   -3.8971    0.7500    0.0000 C   0  0  0  0  0  0  0  0  0  0  0  0
   -5.1962    0.0000    0.0000 O   0  0  0  0  0  0  0  0  0  0  0  0
   -3.8971    2.2500    0.0000 O   0  0  0  0  0  0  0  0  0  0  0  0
    2.5981   -0.0000    0.0000 O   0  0  0  0  0  0  0  0  0  0  0  0
    1.2990    2.2500    0.0000 O   0  0  0  0  0  0  0  0  0  0  0  0
  1  2  1  0
  2  3  1  0
  3  4  1  0
  4  5  1  0
  5  6  1  0
  5  7  2  0
  1  8  1  0
  1  9  2  0
M  END
>  <Name>  (110) 
Oxydiacetic_acid_(Diglycolic_acid)

>  <logK_Lu_z=3.0_T=25_I=0.1>  (110) 
6.41

>  <logK_Lu_z=3.0_T=25_I=1.0>  (110) 
5.64

$$$$

     RDKit          2D

 11 10  0  0  0  0  0  0  0  0999 V2000
    1.2990    2.2500    0.0000 O   0  0  0  0  0  0  0  0  0  0  0  0
    1.2990    0.7500    0.0000 C   0  0  0  0  0  0  0  0  0  0  0  0
    2.5981   -0.0000    0.0000 C   0  0  0  0  0  0  0  0  0  0  0  0
    2.5981   -1.5000    0.0000 O   0  0  0  0  0  0  0  0  0  0  0  0
    3.8971    0.7500    0.0000 O   0  0  0  0  0  0  0  0  0  0  0  0
    0.0000    0.0000    0.0000 C   0  0  0  0  0  0  0  0  0  0  0  0
    2.5981    3.0000    0.0000 C   0  0  0  0  0  0  0  0  0  0  0  0
    2.5981    4.5000    0.0000 C   0  0  0  0  0  0  0  0  0  0  0  0
    1.2990    5.2500    0.0000 O   0  0  0  0  0  0  0  0  0  0  0  0
    3.8971    5.2500    0.0000 O   0  0  0  0  0  0  0  0  0  0  0  0
    3.8971    2.2500    0.0000 C   0  0  0  0  0  0  0  0  0  0  0  0
  1  2  1  0
  2  3  1  0
  3  4  2  0
  3  5  1  0
  2  6  1  0
  1  7  1  0
  7  8  1  0
  8  9  2  0
  8 10  1  0
  7 11  1  0
M  END
>  <Name>  (111) 
DL-2,2'-Oxydipropanoic_acid_(Dilactic_acid)

>  <logK_Lu_z=3.0_T=25_I=0.1>  (111) 
5.62

$$$$

     RDKit          2D

 15 15  0  0  0  0  0  0  0  0999 V2000
    1.5000    0.0000    0.0000 C   0  0  0  0  0  0  0  0  0  0  0  0
    3.0000    0.0000    0.0000 C   0  0  0  0  0  0  0  0  0  0  0  0
    3.7500   -1.2990    0.0000 O   0  0  0  0  0  0  0  0  0  0  0  0
    3.7500    1.2990    0.0000 O   0  0  0  0  0  0  0  0  0  0  0  0
    0.7500   -1.2990    0.0000 C   0  0  0  0  0  0  0  0  0  0  0  0
    1.5000   -2.5981    0.0000 C   0  0  0  0  0  0  0  0  0  0  0  0
    0.7500   -3.8971    0.0000 O   0  0  0  0  0  0  0  0  0  0  0  0
    3.0000   -2.5981    0.0000 O   0  0  0  0  0  0  0  0  0  0  0  0
   -0.7500   -1.2990    0.0000 C   0  0  0  0  0  0  0  0  0  0  0  0
   -1.5000   -2.5981    0.0000 C   0  0  0  0  0  0  0  0  0  0  0  0
   -3.0000   -2.5981    0.0000 O   0  0  0  0  0  0  0  0  0  0  0  0
   -0.7500   -3.8971    0.0000 O   0  0  0  0  0  0  0  0  0  0  0  0
   -1.5000    0.0000    0.0000 C   0  0  0  0  0  0  0  0  0  0  0  0
   -0.7500    1.2990    0.0000 C   0  0  0  0  0  0  0  0  0  0  0  0
    0.7500    1.2990    0.0000 C   0  0  0  0  0  0  0  0  0  0  0  0
  1  2  1  0
  2  3  1  0
  2  4  2  0
  1  5  2  0
  5  6  1  0
  6  7  1  0
  6  8  2  0
  5  9  1  0
  9 10  1  0
 10 11  1  0
 10 12  2  0
  9 13  2  0
 13 14  1  0
 14 15  2  0
 15  1  1  0
M  END
>  <Name>  (112) 
Benzene-1,2,3-tricarboxylic_acid_(Hemimellitic_acid)

>  <logK_Lu_z=3.0_T=25_I=0.1>  (112) 
4.8

$$$$

     RDKit          2D

 13 12  0  0  0  0  0  0  0  0999 V2000
    0.5490    2.0490    0.0000 O   0  0  0  0  0  0  0  0  0  0  0  0
    1.2990    0.7500    0.0000 C   0  0  0  0  0  0  0  0  0  0  0  0
    2.0490   -0.5490    0.0000 C   0  0  0  0  0  0  0  0  0  0  0  0
    3.5490   -0.5490    0.0000 O   0  0  0  0  0  0  0  0  0  0  0  0
    1.2990   -1.8481    0.0000 O   0  0  0  0  0  0  0  0  0  0  0  0
    0.0000    0.0000    0.0000 C   0  0  0  0  0  0  0  0  0  0  0  0
   -1.2990    0.7500    0.0000 C   0  0  0  0  0  0  0  0  0  0  0  0
   -2.5981    0.0000    0.0000 O   0  0  0  0  0  0  0  0  0  0  0  0
   -1.2990    2.2500    0.0000 O   0  0  0  0  0  0  0  0  0  0  0  0
    2.5981    1.5000    0.0000 C   0  0  0  0  0  0  0  0  0  0  0  0
    2.5981    3.0000    0.0000 C   0  0  0  0  0  0  0  0  0  0  0  0
    3.8971    3.7500    0.0000 O   0  0  0  0  0  0  0  0  0  0  0  0
    1.2990    3.7500    0.0000 O   0  0  0  0  0  0  0  0  0  0  0  0
  1  2  1  0
  2  3  1  0
  3  4  1  0
  3  5  2  0
  2  6  1  0
  6  7  1  0
  7  8  1  0
  7  9  2  0
  2 10  1  0
 10 11  1  0
 11 12  1  0
 11 13  2  0
M  END
>  <Name>  (113) 
2-Hydroxypropane-1,2,3-tricarboxylic_acid_(Citric_acid)

>  <logK_Lu_z=3.0_T=25_I=0.1>  (113) 
8.04

>  <logK_Lu_z=3.0_T=25_I=0.0>  (113) 
9.67

$$$$

     RDKit          2D

 18 18  0  0  0  0  0  0  0  0999 V2000
    1.5000    0.0000    0.0000 C   0  0  0  0  0  0  0  0  0  0  0  0
    3.0000    0.0000    0.0000 C   0  0  0  0  0  0  0  0  0  0  0  0
    3.7500   -1.2990    0.0000 O   0  0  0  0  0  0  0  0  0  0  0  0
    3.7500    1.2990    0.0000 O   0  0  0  0  0  0  0  0  0  0  0  0
    0.7500   -1.2990    0.0000 C   0  0  0  0  0  0  0  0  0  0  0  0
   -0.7500   -1.2990    0.0000 C   0  0  0  0  0  0  0  0  0  0  0  0
   -1.5000   -2.5981    0.0000 C   0  0  0  0  0  0  0  0  0  0  0  0
   -3.0000   -2.5981    0.0000 O   0  0  0  0  0  0  0  0  0  0  0  0
   -0.7500   -3.8971    0.0000 O   0  0  0  0  0  0  0  0  0  0  0  0
   -1.5000    0.0000    0.0000 C   0  0  0  0  0  0  0  0  0  0  0  0
   -0.7500    1.2990    0.0000 C   0  0  0  0  0  0  0  0  0  0  0  0
    0.7500    1.2990    0.0000 C   0  0  0  0  0  0  0  0  0  0  0  0
    1.5000    2.5981    0.0000 C   0  0  0  0  0  0  0  0  0  0  0  0
    0.7500    3.8971    0.0000 O   0  0  0  0  0  0  0  0  0  0  0  0
    3.0000    2.5981    0.0000 O   0  0  0  0  0  0  0  0  0  0  0  0
   -3.0000    0.0000    0.0000 C   0  0  0  0  0  0  0  0  0  0  0  0
   -3.7500    1.2990    0.0000 O   0  0  0  0  0  0  0  0  0  0  0  0
   -3.7500   -1.2990    0.0000 O   0  0  0  0  0  0  0  0  0  0  0  0
  1  2  1  0
  2  3  1  0
  2  4  2  0
  1  5  2  0
  5  6  1  0
  6  7  1  0
  7  8  1  0
  7  9  2  0
  6 10  2  0
 10 11  1  0
 11 12  2  0
 12 13  1  0
 13 14  1  0
 13 15  2  0
 10 16  1  0
 16 17  1  0
 16 18  2  0
 12  1  1  0
M  END
>  <Name>  (114) 
Benzene-1,2,4,5-tetracarboxylic_acid_(Pyromellitic_acid)

>  <logK_Lu_z=3.0_T=25_I=0.1>  (114) 
4.6

$$$$

     RDKit          2D

 10 10  0  0  0  0  0  0  0  0999 V2000
    3.0000    0.0000    0.0000 O   0  0  0  0  0  0  0  0  0  0  0  0
    1.5000    0.0000    0.0000 C   0  0  0  0  0  0  0  0  0  0  0  0
    0.7500   -1.2990    0.0000 C   0  0  0  0  0  0  0  0  0  0  0  0
   -0.7500   -1.2990    0.0000 C   0  0  0  0  0  0  0  0  0  0  0  0
   -1.5000    0.0000    0.0000 C   0  0  0  0  0  0  0  0  0  0  0  0
   -3.0000    0.0000    0.0000 N   0  0  0  0  0  4  0  0  0  0  0  0
   -3.7500    1.2990    0.0000 O   0  0  0  0  0  1  0  0  0  0  0  0
   -3.7500   -1.2990    0.0000 O   0  0  0  0  0  0  0  0  0  0  0  0
   -0.7500    1.2990    0.0000 C   0  0  0  0  0  0  0  0  0  0  0  0
    0.7500    1.2990    0.0000 C   0  0  0  0  0  0  0  0  0  0  0  0
  1  2  1  0
  2  3  2  0
  3  4  1  0
  4  5  2  0
  5  6  1  0
  6  7  1  0
  6  8  2  0
  5  9  1  0
  9 10  2  0
 10  2  1  0
M  CHG  2   6   1   7  -1
M  END
>  <Name>  (115) 
4-Nitrophenol

>  <logK_Lu_z=3.0_T=25_I=0.1>  (115) 
1.46

$$$$

     RDKit          2D

 15 15  0  0  0  0  0  0  0  0999 V2000
    3.0000    0.0000    0.0000 Br  0  0  0  0  0  0  0  0  0  0  0  0
    1.5000    0.0000    0.0000 C   0  0  0  0  0  0  0  0  0  0  0  0
    0.7500   -1.2990    0.0000 C   0  0  0  0  0  0  0  0  0  0  0  0
   -0.7500   -1.2990    0.0000 C   0  0  0  0  0  0  0  0  0  0  0  0
   -1.5000   -2.5981    0.0000 C   0  0  0  0  0  0  0  0  0  0  0  0
   -0.7500   -3.8971    0.0000 O   0  0  0  0  0  0  0  0  0  0  0  0
   -3.0000   -2.5981    0.0000 O   0  0  0  0  0  0  0  0  0  0  0  0
   -1.5000    0.0000    0.0000 C   0  0  0  0  0  0  0  0  0  0  0  0
   -0.7500    1.2990    0.0000 C   0  0  0  0  0  0  0  0  0  0  0  0
    0.7500    1.2990    0.0000 C   0  0  0  0  0  0  0  0  0  0  0  0
   -1.5000    2.5981    0.0000 S   0  0  0  0  0  0  0  0  0  0  0  0
   -0.2010    3.3481    0.0000 O   0  0  0  0  0  0  0  0  0  0  0  0
   -2.7990    1.8481    0.0000 O   0  0  0  0  0  0  0  0  0  0  0  0
   -2.2500    3.8971    0.0000 O   0  0  0  0  0  0  0  0  0  0  0  0
    1.5000   -2.5981    0.0000 O   0  0  0  0  0  0  0  0  0  0  0  0
  1  2  1  0
  2  3  2  0
  3  4  1  0
  4  5  1  0
  5  6  2  0
  5  7  1  0
  4  8  2  0
  8  9  1  0
  9 10  2  0
  9 11  1  0
 11 12  2  0
 11 13  2  0
 11 14  1  0
  3 15  1  0
 10  2  1  0
M  END
>  <Name>  (116) 
3-Bromo-2-hydroxy-5-sulfobenzoic_acid_(3-Bromo-5-sulfosalicylic_acid)

>  <logK_Lu_z=3.0_T=25_I=0.1>  (116) 
7.56

$$$$

     RDKit          2D

 20 20  0  0  0  0  0  0  0  0999 V2000
    7.5000    2.5981    0.0000 S   0  0  0  0  0  0  0  0  0  0  0  0
    6.0000    2.5981    0.0000 C   0  0  0  0  0  0  0  0  0  0  0  0
    5.2500    1.2990    0.0000 C   0  0  0  0  0  0  0  0  0  0  0  0
    3.7500    1.2990    0.0000 C   0  0  0  0  0  0  0  0  0  0  0  0
    3.0000    0.0000    0.0000 N   0  0  0  0  0  0  0  0  0  0  0  0
    1.5000    0.0000    0.0000 C   0  0  0  0  0  0  0  0  0  0  0  0
    0.7500   -1.2990    0.0000 C   0  0  0  0  0  0  0  0  0  0  0  0
   -0.7500   -1.2990    0.0000 C   0  0  0  0  0  0  0  0  0  0  0  0
   -1.5000    0.0000    0.0000 C   0  0  0  0  0  0  0  0  0  0  0  0
   -0.7500    1.2990    0.0000 C   0  0  0  0  0  0  0  0  0  0  0  0
    0.7500    1.2990    0.0000 C   0  0  0  0  0  0  0  0  0  0  0  0
   -1.5000    2.5981    0.0000 O   0  0  0  0  0  0  0  0  0  0  0  0
   -3.0000    0.0000    0.0000 N   0  0  0  0  0  0  0  0  0  0  0  0
   -3.7500    1.2990    0.0000 O   0  0  0  0  0  0  0  0  0  0  0  0
    3.7500   -1.2990    0.0000 C   0  0  0  0  0  0  0  0  0  0  0  0
    5.2500   -1.2990    0.0000 C   0  0  0  0  0  0  0  0  0  0  0  0
    6.0000   -2.5981    0.0000 C   0  0  0  0  0  0  0  0  0  0  0  0
    7.5000    4.0981    0.0000 O   0  0  0  0  0  0  0  0  0  0  0  0
    7.5000    1.0981    0.0000 O   0  0  0  0  0  0  0  0  0  0  0  0
    9.0000    2.5981    0.0000 O   0  0  0  0  0  0  0  0  0  0  0  0
  1  2  1  0
  2  3  1  0
  3  4  1  0
  4  5  1  0
  5  6  1  0
  6  7  2  0
  7  8  1  0
  8  9  2  0
  9 10  1  0
 10 11  2  0
 10 12  1  0
  9 13  1  0
 13 14  2  0
  5 15  1  0
 15 16  1  0
 16 17  1  0
  1 18  2  0
  1 19  2  0
  1 20  1  0
 11  6  1  0
M  END
>  <Name>  (117) 
2-Nitroso-5-(N-propyl-3-sulfopropylamino)phenol

>  <logK_Lu_z=3.0_T=25_I=0.1>  (117) 
6.03

$$$$

     RDKit          2D

 10 10  0  0  0  0  0  0  0  0999 V2000
    3.0000    0.0000    0.0000 O   0  0  0  0  0  0  0  0  0  0  0  0
    1.5000    0.0000    0.0000 C   0  0  0  0  0  0  0  0  0  0  0  0
    0.7500   -1.2990    0.0000 C   0  0  0  0  0  0  0  0  0  0  0  0
   -0.7500   -1.2990    0.0000 C   0  0  0  0  0  0  0  0  0  0  0  0
   -1.5000    0.0000    0.0000 C   0  0  0  0  0  0  0  0  0  0  0  0
   -0.7500    1.2990    0.0000 C   0  0  0  0  0  0  0  0  0  0  0  0
    0.7500    1.2990    0.0000 C   0  0  0  0  0  0  0  0  0  0  0  0
    1.5000    2.5981    0.0000 N   0  0  0  0  0  0  0  0  0  0  0  0
    3.0000    2.5981    0.0000 O   0  0  0  0  0  0  0  0  0  0  0  0
   -1.5000   -2.5981    0.0000 O   0  0  0  0  0  0  0  0  0  0  0  0
  1  2  1  0
  2  3  2  0
  3  4  1  0
  4  5  2  0
  5  6  1  0
  6  7  2  0
  7  8  1  0
  8  9  2  0
  4 10  1  0
  7  2  1  0
M  END
>  <Name>  (118) 
1,3-Dihydroxy-4-nitrosobenzene_(Nitrosoresorcinol)

>  <logK_Lu_z=3.0_T=25_I=0.1>  (118) 
6.45

$$$$

     RDKit          2D

 13 14  0  0  0  0  0  0  0  0999 V2000
    0.7500   -1.2990    0.0000 C   0  0  0  0  0  0  0  0  0  0  0  0
    1.5000    0.0000    0.0000 C   0  0  0  0  0  0  0  0  0  0  0  0
    0.7500    1.2990    0.0000 C   0  0  0  0  0  0  0  0  0  0  0  0
   -0.7500    1.2990    0.0000 C   0  0  0  0  0  0  0  0  0  0  0  0
   -1.5000    0.0000    0.0000 C   0  0  0  0  0  0  0  0  0  0  0  0
   -0.7500   -1.2990    0.0000 C   0  0  0  0  0  0  0  0  0  0  0  0
   -1.5000   -2.5981    0.0000 C   0  0  0  0  0  0  0  0  0  0  0  0
   -0.7500   -3.8971    0.0000 C   0  0  0  0  0  0  0  0  0  0  0  0
    0.7500   -3.8971    0.0000 C   0  0  0  0  0  0  0  0  0  0  0  0
    1.5000   -5.1962    0.0000 O   0  0  0  0  0  0  0  0  0  0  0  0
    1.5000   -2.5981    0.0000 C   0  0  0  0  0  0  0  0  0  0  0  0
    3.0000   -2.5981    0.0000 N   0  0  0  0  0  0  0  0  0  0  0  0
    3.7500   -3.8971    0.0000 O   0  0  0  0  0  0  0  0  0  0  0  0
  1  2  2  0
  2  3  1  0
  3  4  2  0
  4  5  1  0
  5  6  2  0
  6  7  1  0
  7  8  2  0
  8  9  1  0
  9 10  1  0
  9 11  2  0
 11 12  1  0
 12 13  2  0
  6  1  1  0
 11  1  1  0
M  END
>  <Name>  (119) 
1-Nitroso-2-naphthol

>  <logK_Lu_z=3.0_T=25_I=0.1>  (119) 
4.48

$$$$

     RDKit          2D

 44 47  0  0  0  0  0  0  0  0999 V2000
    1.5000   -7.7942    0.0000 C   0  0  0  0  0  0  0  0  0  0  0  0
    0.7500   -6.4952    0.0000 C   0  0  0  0  0  0  0  0  0  0  0  0
    1.5000   -5.1962    0.0000 C   0  0  0  0  0  0  0  0  0  0  0  0
    0.7500   -3.8971    0.0000 N   0  0  0  0  0  0  0  0  0  0  0  0
    1.5000   -2.5981    0.0000 N   0  0  0  0  0  0  0  0  0  0  0  0
    0.7500   -1.2990    0.0000 C   0  0  0  0  0  0  0  0  0  0  0  0
    1.5000    0.0000    0.0000 C   0  0  0  0  0  0  0  0  0  0  0  0
    3.0000    0.0000    0.0000 S   0  0  0  0  0  0  0  0  0  0  0  0
    4.5000    0.0000    0.0000 O   0  0  0  0  0  0  0  0  0  0  0  0
    3.0000    1.5000    0.0000 O   0  0  0  0  0  0  0  0  0  0  0  0
    3.0000   -1.5000    0.0000 O   0  0  0  0  0  0  0  0  0  0  0  0
    0.7500    1.2990    0.0000 C   0  0  0  0  0  0  0  0  0  0  0  0
   -0.7500    1.2990    0.0000 C   0  0  0  0  0  0  0  0  0  0  0  0
   -1.5000    2.5981    0.0000 C   0  0  0  0  0  0  0  0  0  0  0  0
   -3.0000    2.5981    0.0000 C   0  0  0  0  0  0  0  0  0  0  0  0
   -3.7500    3.8971    0.0000 S   0  0  0  0  0  0  0  0  0  0  0  0
   -4.5000    5.1962    0.0000 O   0  0  0  0  0  0  0  0  0  0  0  0
   -2.4510    4.6471    0.0000 O   0  0  0  0  0  0  0  0  0  0  0  0
   -5.0490    3.1471    0.0000 O   0  0  0  0  0  0  0  0  0  0  0  0
   -3.7500    1.2990    0.0000 C   0  0  0  0  0  0  0  0  0  0  0  0
   -5.2500    1.2990    0.0000 N   0  0  0  0  0  0  0  0  0  0  0  0
   -6.0000    2.5981    0.0000 N   0  0  0  0  0  0  0  0  0  0  0  0
   -7.5000    2.5981    0.0000 C   0  0  0  0  0  0  0  0  0  0  0  0
   -8.2500    3.8971    0.0000 C   0  0  0  0  0  0  0  0  0  0  0  0
   -7.5000    5.1962    0.0000 As  0  0  0  0  0  5  0  0  0  0  0  0
   -6.7500    6.4952    0.0000 O   0  0  0  0  0  0  0  0  0  0  0  0
   -8.7990    5.9462    0.0000 O   0  0  0  0  0  0  0  0  0  0  0  0
   -6.2010    4.4462    0.0000 O   0  0  0  0  0  0  0  0  0  0  0  0
   -9.7500    3.8971    0.0000 C   0  0  0  0  0  0  0  0  0  0  0  0
  -10.5000    2.5981    0.0000 C   0  0  0  0  0  0  0  0  0  0  0  0
   -9.7500    1.2990    0.0000 C   0  0  0  0  0  0  0  0  0  0  0  0
   -8.2500    1.2990    0.0000 C   0  0  0  0  0  0  0  0  0  0  0  0
   -3.0000    0.0000    0.0000 C   0  0  0  0  0  0  0  0  0  0  0  0
   -3.7500   -1.2990    0.0000 O   0  0  0  0  0  0  0  0  0  0  0  0
   -1.5000    0.0000    0.0000 C   0  0  0  0  0  0  0  0  0  0  0  0
   -0.7500   -1.2990    0.0000 C   0  0  0  0  0  0  0  0  0  0  0  0
   -1.5000   -2.5981    0.0000 O   0  0  0  0  0  0  0  0  0  0  0  0
    3.0000   -5.1962    0.0000 C   0  0  0  0  0  0  0  0  0  0  0  0
    3.7500   -3.8971    0.0000 As  0  0  0  0  0  5  0  0  0  0  0  0
    4.5000   -2.5981    0.0000 O   0  0  0  0  0  0  0  0  0  0  0  0
    5.0490   -4.6471    0.0000 O   0  0  0  0  0  0  0  0  0  0  0  0
    2.4510   -3.1471    0.0000 O   0  0  0  0  0  0  0  0  0  0  0  0
    3.7500   -6.4952    0.0000 C   0  0  0  0  0  0  0  0  0  0  0  0
    3.0000   -7.7942    0.0000 C   0  0  0  0  0  0  0  0  0  0  0  0
  1  2  2  0
  2  3  1  0
  3  4  1  0
  4  5  2  3
  5  6  1  0
  6  7  2  0
  7  8  1  0
  8  9  1  0
  8 10  2  0
  8 11  2  0
  7 12  1  0
 12 13  2  0
 13 14  1  0
 14 15  2  0
 15 16  1  0
 16 17  1  0
 16 18  2  0
 16 19  2  0
 15 20  1  0
 20 21  1  0
 21 22  2  3
 22 23  1  0
 23 24  2  0
 24 25  1  0
 25 26  1  0
 25 27  1  0
 25 28  2  0
 24 29  1  0
 29 30  2  0
 30 31  1  0
 31 32  2  0
 20 33  2  0
 33 34  1  0
 33 35  1  0
 35 36  2  0
 36 37  1  0
  3 38  2  0
 38 39  1  0
 39 40  1  0
 39 41  1  0
 39 42  2  0
 38 43  1  0
 43 44  2  0
 44  1  1  0
 36  6  1  0
 35 13  1  0
 32 23  1  0
M  END
>  <Name>  (120) 
2,7-Bis(2-arsonophenylazo)-1,8-dihydroxynaphthalene-3,6-disulfonic_acid_(Arsenazo_III)

>  <logK_Lu_z=3.0_T=25_I=0.1>  (120) 
6.8

$$$$

     RDKit          2D

  7  6  0  0  0  0  0  0  0  0999 V2000
    0.0000    0.0000    0.0000 C   0  0  0  0  0  0  0  0  0  0  0  0
    1.2990    0.7500    0.0000 C   0  0  0  0  0  0  0  0  0  0  0  0
    2.5981   -0.0000    0.0000 C   0  0  0  0  0  0  0  0  0  0  0  0
    3.8971    0.7500    0.0000 C   0  0  0  0  0  0  0  0  0  0  0  0
    5.1962   -0.0000    0.0000 C   0  0  0  0  0  0  0  0  0  0  0  0
    3.8971    2.2500    0.0000 O   0  0  0  0  0  0  0  0  0  0  0  0
    1.2990    2.2500    0.0000 O   0  0  0  0  0  0  0  0  0  0  0  0
  1  2  1  0
  2  3  1  0
  3  4  1  0
  4  5  1  0
  4  6  2  0
  2  7  2  0
M  END
>  <Name>  (121) 
Pentane-2,4-dione_(Acetylacetone)

>  <logK_Lu_z=3.0_T=25_I=0.1>  (121) 
6.15

>  <logK_Lu_z=3.0_T=25_I=2.0>  (121) 
6.24

$$$$

     RDKit          2D

  8  8  0  0  0  0  0  0  0  0999 V2000
    1.0607    0.0000    0.0000 C   0  0  0  0  0  0  0  0  0  0  0  0
    2.5607    0.0000    0.0000 O   0  0  0  0  0  0  0  0  0  0  0  0
   -0.0000   -1.0607    0.0000 C   0  0  0  0  0  0  0  0  0  0  0  0
   -0.0000   -2.5607    0.0000 O   0  0  0  0  0  0  0  0  0  0  0  0
   -1.0607    0.0000    0.0000 C   0  0  0  0  0  0  0  0  0  0  0  0
   -2.5607    0.0000    0.0000 O   0  0  0  0  0  0  0  0  0  0  0  0
    0.0000    1.0607    0.0000 C   0  0  0  0  0  0  0  0  0  0  0  0
    0.0000    2.5607    0.0000 O   0  0  0  0  0  0  0  0  0  0  0  0
  1  2  1  0
  1  3  1  0
  3  4  2  0
  3  5  1  0
  5  6  2  0
  5  7  1  0
  7  8  1  0
  7  1  2  0
M  END
>  <Name>  (122) 
Dihydroxycyclobutenedione_(Squaric_acid)

>  <logK_Lu_z=3.0_T=25_I=0.1>  (122) 
2.68

$$$$

     RDKit          2D

  9  9  0  0  0  0  0  0  0  0999 V2000
    1.7286    0.0000    0.0000 C   0  0  0  0  0  0  0  0  0  0  0  0
    3.2286   -0.0000    0.0000 O   0  0  0  0  0  0  0  0  0  0  0  0
    1.0777    1.3515    0.0000 C   0  0  0  0  0  0  0  0  0  0  0  0
   -0.3846    1.6852    0.0000 C   0  0  0  0  0  0  0  0  0  0  0  0
   -1.5574    0.7500    0.0000 C   0  0  0  0  0  0  0  0  0  0  0  0
   -1.5574   -0.7500    0.0000 C   0  0  0  0  0  0  0  0  0  0  0  0
   -0.3846   -1.6852    0.0000 C   0  0  0  0  0  0  0  0  0  0  0  0
    1.0777   -1.3515    0.0000 C   0  0  0  0  0  0  0  0  0  0  0  0
    2.0130   -2.5242    0.0000 O   0  0  0  0  0  0  0  0  0  0  0  0
  1  2  1  0
  1  3  2  0
  3  4  1  0
  4  5  2  0
  5  6  1  0
  6  7  2  0
  7  8  1  0
  8  9  2  0
  8  1  1  0
M  END
>  <Name>  (123) 
1-Hydroxycyclohepta-3,5,7-trien-2-one_(Tropolone)

>  <logK_Lu_z=3.0_T=25_I=0.1>  (123) 
7.69

$$$$

     RDKit          2D

  9  9  0  0  0  0  0  0  0  0999 V2000
    1.5000    0.0000    0.0000 O   0  0  0  0  0  0  0  0  0  0  0  0
    0.7500   -1.2990    0.0000 C   0  0  0  0  0  0  0  0  0  0  0  0
   -0.7500   -1.2990    0.0000 C   0  0  0  0  0  0  0  0  0  0  0  0
   -1.5000    0.0000    0.0000 C   0  0  0  0  0  0  0  0  0  0  0  0
   -3.0000    0.0000    0.0000 O   0  0  0  0  0  0  0  0  0  0  0  0
   -0.7500    1.2990    0.0000 C   0  0  0  0  0  0  0  0  0  0  0  0
   -1.5000    2.5981    0.0000 O   0  0  0  0  0  0  0  0  0  0  0  0
    0.7500    1.2990    0.0000 C   0  0  0  0  0  0  0  0  0  0  0  0
    1.5000    2.5981    0.0000 C   0  0  0  0  0  0  0  0  0  0  0  0
  1  2  1  0
  2  3  2  0
  3  4  1  0
  4  5  2  0
  4  6  1  0
  6  7  1  0
  6  8  2  0
  8  9  1  0
  8  1  1  0
M  END
>  <Name>  (124) 
3-Hydroxy-2-methyl-4-pyrone_(Maltol)

>  <logK_Lu_z=3.0_T=25_I=0.1>  (124) 
6.82

$$$$

     RDKit          2D

 10 10  0  0  0  0  0  0  0  0999 V2000
    1.5000    0.0000    0.0000 C   0  0  0  0  0  0  0  0  0  0  0  0
    3.0000    0.0000    0.0000 O   0  0  0  0  0  0  0  0  0  0  0  0
    0.7500   -1.2990    0.0000 C   0  0  0  0  0  0  0  0  0  0  0  0
   -0.7500   -1.2990    0.0000 O   0  0  0  0  0  0  0  0  0  0  0  0
   -1.5000    0.0000    0.0000 C   0  0  0  0  0  0  0  0  0  0  0  0
   -3.0000    0.0000    0.0000 C   0  0  0  0  0  0  0  0  0  0  0  0
   -3.7500    1.2990    0.0000 O   0  0  0  0  0  0  0  0  0  0  0  0
   -0.7500    1.2990    0.0000 C   0  0  0  0  0  0  0  0  0  0  0  0
    0.7500    1.2990    0.0000 C   0  0  0  0  0  0  0  0  0  0  0  0
    1.5000    2.5981    0.0000 O   0  0  0  0  0  0  0  0  0  0  0  0
  1  2  1  0
  1  3  2  0
  3  4  1  0
  4  5  1  0
  5  6  1  0
  6  7  1  0
  5  8  2  0
  8  9  1  0
  9 10  2  0
  9  1  1  0
M  END
>  <Name>  (125) 
5-Hydroxy-2-hydroxymethyl-4-pyrone_(Kojic_acid)

>  <logK_Lu_z=3.0_T=25_I=0.1>  (125) 
6.42

>  <logK_Lu_z=3.0_T=25_I=2.0>  (125) 
6.0

$$$$

     RDKit          2D

 11 11  0  0  0  0  0  0  0  0999 V2000
    1.5000    0.0000    0.0000 O   0  0  0  0  0  0  0  0  0  0  0  0
    0.7500   -1.2990    0.0000 C   0  0  0  0  0  0  0  0  0  0  0  0
    1.5000   -2.5981    0.0000 C   0  0  0  0  0  0  0  0  0  0  0  0
   -0.7500   -1.2990    0.0000 C   0  0  0  0  0  0  0  0  0  0  0  0
   -1.5000    0.0000    0.0000 C   0  0  0  0  0  0  0  0  0  0  0  0
   -0.7500    1.2990    0.0000 C   0  0  0  0  0  0  0  0  0  0  0  0
    0.7500    1.2990    0.0000 C   0  0  0  0  0  0  0  0  0  0  0  0
    1.5000    2.5981    0.0000 C   0  0  0  0  0  0  0  0  0  0  0  0
    3.0000    2.5981    0.0000 O   0  0  0  0  0  0  0  0  0  0  0  0
   -3.0000    0.0000    0.0000 O   0  0  0  0  0  0  0  0  0  0  0  0
   -1.5000   -2.5981    0.0000 O   0  0  0  0  0  0  0  0  0  0  0  0
  1  2  1  0
  2  3  1  0
  2  4  2  0
  4  5  1  0
  5  6  1  0
  6  7  2  0
  7  8  1  0
  8  9  1  0
  5 10  2  0
  4 11  1  0
  7  1  1  0
M  END
>  <Name>  (126) 
5-Hydroxy-2-hydroxymethyl-6-methyl-4-pyrone_(6-Methylkojic_acid)

>  <logK_Lu_z=3.0_T=25_I=0.1>  (126) 
6.76

$$$$

     RDKit          2D

 11 11  0  0  0  0  0  0  0  0999 V2000
    3.0000    0.0000    0.0000 Br  0  0  0  0  0  0  0  0  0  0  0  0
    1.5000    0.0000    0.0000 C   0  0  0  0  0  0  0  0  0  0  0  0
    0.7500   -1.2990    0.0000 C   0  0  0  0  0  0  0  0  0  0  0  0
   -0.7500   -1.2990    0.0000 C   0  0  0  0  0  0  0  0  0  0  0  0
   -1.5000    0.0000    0.0000 C   0  0  0  0  0  0  0  0  0  0  0  0
   -0.7500    1.2990    0.0000 C   0  0  0  0  0  0  0  0  0  0  0  0
   -1.5000    2.5981    0.0000 C   0  0  0  0  0  0  0  0  0  0  0  0
   -0.7500    3.8971    0.0000 O   0  0  0  0  0  0  0  0  0  0  0  0
    0.7500    1.2990    0.0000 O   0  0  0  0  0  0  0  0  0  0  0  0
   -1.5000   -2.5981    0.0000 O   0  0  0  0  0  0  0  0  0  0  0  0
    1.5000   -2.5981    0.0000 O   0  0  0  0  0  0  0  0  0  0  0  0
  1  2  1  0
  2  3  2  0
  3  4  1  0
  4  5  1  0
  5  6  2  0
  6  7  1  0
  7  8  1  0
  6  9  1  0
  4 10  2  0
  3 11  1  0
  9  2  1  0
M  END
>  <Name>  (127) 
6-Bromo-5-hydroxy-2-hydroxymethyl-4-pyrone_(6-Bromokojic_acid)

>  <logK_Lu_z=3.0_T=25_I=0.1>  (127) 
5.64

$$$$

     RDKit          2D

 11 11  0  0  0  0  0  0  0  0999 V2000
    3.0000    0.0000    0.0000 I   0  0  0  0  0  0  0  0  0  0  0  0
    1.5000    0.0000    0.0000 C   0  0  0  0  0  0  0  0  0  0  0  0
    0.7500   -1.2990    0.0000 C   0  0  0  0  0  0  0  0  0  0  0  0
   -0.7500   -1.2990    0.0000 C   0  0  0  0  0  0  0  0  0  0  0  0
   -1.5000    0.0000    0.0000 C   0  0  0  0  0  0  0  0  0  0  0  0
   -0.7500    1.2990    0.0000 C   0  0  0  0  0  0  0  0  0  0  0  0
   -1.5000    2.5981    0.0000 C   0  0  0  0  0  0  0  0  0  0  0  0
   -0.7500    3.8971    0.0000 O   0  0  0  0  0  0  0  0  0  0  0  0
    0.7500    1.2990    0.0000 O   0  0  0  0  0  0  0  0  0  0  0  0
   -1.5000   -2.5981    0.0000 O   0  0  0  0  0  0  0  0  0  0  0  0
    1.5000   -2.5981    0.0000 O   0  0  0  0  0  0  0  0  0  0  0  0
  1  2  1  0
  2  3  2  0
  3  4  1  0
  4  5  1  0
  5  6  2  0
  6  7  1  0
  7  8  1  0
  6  9  1  0
  4 10  2  0
  3 11  1  0
  9  2  1  0
M  END
>  <Name>  (128) 
5-Hydroxy-2-hydroxymethyl-6-iodo-4-pyrone_(6-Iodokojic_acid)

>  <logK_Lu_z=3.0_T=25_I=0.1>  (128) 
5.71

$$$$

     RDKit          2D

 12 12  0  0  0  0  0  0  0  0999 V2000
    1.5000    0.0000    0.0000 O   0  0  0  0  0  0  0  0  0  0  0  0
    0.7500   -1.2990    0.0000 C   0  0  0  0  0  0  0  0  0  0  0  0
    1.5000   -2.5981    0.0000 C   0  0  0  0  0  0  0  0  0  0  0  0
    0.7500   -3.8971    0.0000 O   0  0  0  0  0  0  0  0  0  0  0  0
   -0.7500   -1.2990    0.0000 C   0  0  0  0  0  0  0  0  0  0  0  0
   -1.5000    0.0000    0.0000 C   0  0  0  0  0  0  0  0  0  0  0  0
   -0.7500    1.2990    0.0000 C   0  0  0  0  0  0  0  0  0  0  0  0
    0.7500    1.2990    0.0000 C   0  0  0  0  0  0  0  0  0  0  0  0
    1.5000    2.5981    0.0000 C   0  0  0  0  0  0  0  0  0  0  0  0
    3.0000    2.5981    0.0000 O   0  0  0  0  0  0  0  0  0  0  0  0
   -1.5000    2.5981    0.0000 O   0  0  0  0  0  0  0  0  0  0  0  0
   -3.0000    0.0000    0.0000 O   0  0  0  0  0  0  0  0  0  0  0  0
  1  2  1  0
  2  3  1  0
  3  4  1  0
  2  5  2  0
  5  6  1  0
  6  7  1  0
  7  8  2  0
  8  9  1  0
  9 10  1  0
  7 11  1  0
  6 12  2  0
  8  1  1  0
M  END
>  <Name>  (129) 
3-Hydroxy-2,6-bis(hydroxymethyl)-4-pyrone_(6-Hydroxymethylkojic_acid)

>  <logK_Lu_z=3.0_T=25_I=0.1>  (129) 
6.41

$$$$

     RDKit          2D

 12 12  0  0  0  0  0  0  0  0999 V2000
    1.2760    0.0000    0.0000 C   0  0  0  0  0  0  0  0  0  0  0  0
    2.7760    0.0000    0.0000 C   0  0  0  0  0  0  0  0  0  0  0  0
    3.5260    1.2990    0.0000 O   0  0  0  0  0  0  0  0  0  0  0  0
    3.5260   -1.2990    0.0000 C   0  0  0  0  0  0  0  0  0  0  0  0
    5.0260   -1.2990    0.0000 O   0  0  0  0  0  0  0  0  0  0  0  0
    0.3943    1.2135    0.0000 C   0  0  0  0  0  0  0  0  0  0  0  0
    0.8578    2.6401    0.0000 O   0  0  0  0  0  0  0  0  0  0  0  0
   -1.0323    0.7500    0.0000 C   0  0  0  0  0  0  0  0  0  0  0  0
   -2.2458    1.6317    0.0000 O   0  0  0  0  0  0  0  0  0  0  0  0
   -1.0323   -0.7500    0.0000 C   0  0  0  0  0  0  0  0  0  0  0  0
   -2.2458   -1.6317    0.0000 O   0  0  0  0  0  0  0  0  0  0  0  0
    0.3943   -1.2135    0.0000 O   0  0  0  0  0  0  0  0  0  0  0  0
  1  2  1  0
  2  3  1  1
  2  4  1  0
  4  5  1  0
  1  6  1  0
  6  7  1  0
  6  8  2  0
  8  9  1  0
  8 10  1  0
 10 11  2  0
 10 12  1  0
  1 12  1  1
M  END
>  <Name>  (130) 
L-3,4-Dihydroxy-5-(1,2-dihydroxyethyl)-2,5-H-oxole-2-one_(L-Ascorbic_acid)

>  <logK_Lu_z=3.0_T=25_I=0.1>  (130) 
1.7

>  <logK_Lu_z=3.0_T=25_I=2.0>  (130) 
1.32

$$$$

     RDKit          2D

  1  0  0  0  0  0  0  0  0  0999 V2000
    0.0000    0.0000    0.0000 O   0  0  0  0  0  1  0  0  0  0  0  0
M  CHG  1   1  -1
M  END
>  <Name>  (131) 
Hydroxide_ion

>  <logK_Lu_z=3.0_T=25_I=0.5>  (131) 
5.83

$$$$

     RDKit          2D

  3  2  0  0  0  0  0  0  0  0999 V2000
    0.0000    0.0000    0.0000 C   0  0  0  0  0  0  0  0  0  0  0  0
   -0.0000   -1.5000    0.0000 S   0  0  0  0  0  0  0  0  0  0  0  0
    0.0000    1.5000    0.0000 N   0  0  0  0  0  0  0  0  0  0  0  0
  1  2  1  0
  1  3  3  0
M  END
>  <Name>  (132) 
Hydrogen_thiocyanate_(Thiocyanic_acid)

>  <logK_Lu_z=3.0_T=30_I=1.0>  (132) 
0.2

>  <logK_Lu_z=3.0_T=25_I=2.0>  (132) 
0.2

>  <logK_Lu_z=3.0_T=25_I=5.0>  (132) 
0.45

$$$$

     RDKit          2D

  4  3  0  0  0  0  0  0  0  0999 V2000
    1.2990    0.7500    0.0000 O   0  0  0  0  0  1  0  0  0  0  0  0
    0.0000    0.0000    0.0000 N   0  0  0  0  0  4  0  0  0  0  0  0
   -1.2990    0.7500    0.0000 O   0  0  0  0  0  1  0  0  0  0  0  0
   -0.0000   -1.5000    0.0000 O   0  0  0  0  0  0  0  0  0  0  0  0
  1  2  1  0
  2  3  1  0
  2  4  2  0
M  CHG  3   1  -1   2   1   3  -1
M  END
>  <Name>  (133) 
Nitrate_ion

>  <logK_Lu_z=3.0_T=25_I=1.0>  (133) 
-0.2

$$$$

     RDKit          2D

  1  0  0  0  0  0  0  0  0  0999 V2000
    0.0000    0.0000    0.0000 F   0  0  0  0  0  0  0  0  0  0  0  0
M  END
>  <Name>  (134) 
Hydrogen_fluoride_(Hydrofluoric_acid)

>  <logK_Lu_z=3.0_T=25_I=0.1>  (134) 
3.98

>  <logK_Lu_z=3.0_T=25_I=0.5>  (134) 
3.59

>  <logK_Lu_z=3.0_T=25_I=1.0>  (134) 
3.61

>  <logK_Lu_z=3.0_T=25_I=0.0>  (134) 
4.62

$$$$

     RDKit          2D

  1  0  0  0  0  0  0  0  0  0999 V2000
    0.0000    0.0000    0.0000 Cl  0  0  0  0  0 15  0  0  0  0  0  0
M  CHG  1   1  -1
M  END
>  <Name>  (135) 
Chloride_ion

>  <logK_Lu_z=3.0_T=20_I=1.0>  (135) 
-0.4

>  <logK_Lu_z=3.0_T=25_I=4.0>  (135) 
-0.35

$$$$

     RDKit          2D

 25 26  0  0  0  0  0  0  0  0999 V2000
   10.4961  -14.1763    0.0000 C   0  0  0  0  0  0  0  0  0  0  0  0
   11.3822  -13.2439    0.0000 C   0  0  0  0  0  0  0  0  0  0  0  0
   12.6955  -16.8205    0.0000 C   0  0  0  0  0  0  0  0  0  0  0  0
   11.5583  -16.3022    0.0000 C   0  0  0  0  0  0  0  0  0  0  0  0
   16.1692  -16.3720    0.0000 C   0  0  0  0  0  0  0  0  0  0  0  0
   14.9998  -17.0508    0.0000 C   0  0  0  0  0  0  0  0  0  0  0  0
   17.0952  -12.9360    0.0000 C   0  0  0  0  0  0  0  0  0  0  0  0
   17.1135  -14.2330    0.0000 C   0  0  0  0  0  0  0  0  0  0  0  0
   12.6653   -8.7536    0.0000 C   0  0  0  0  0  0  0  0  0  0  0  0
   12.6701  -10.0764    0.0000 C   0  0  0  0  0  0  0  0  0  0  0  0
   13.8186   -8.0877    0.0000 C   0  0  0  0  0  0  0  0  0  0  0  0
   13.8169  -10.7471    0.0000 C   0  0  0  0  0  0  0  0  0  0  0  0
   14.9641   -8.7718    0.0000 C   0  0  0  0  0  0  0  0  0  0  0  0
   14.9796  -10.1017    0.0000 C   0  0  0  0  0  0  0  0  0  0  0  0
   16.1021  -10.8275    0.0000 C   0  0  0  0  0  0  0  0  0  0  0  0
   11.5334  -10.7911    0.0000 C   0  0  0  0  0  0  0  0  0  0  0  0
   16.0417  -12.1584    0.0000 O   0  0  0  0  0  0  0  0  0  0  0  0
   16.0807  -15.0306    0.0000 O   0  0  0  0  0  0  0  0  0  0  0  0
   13.8862  -16.3019    0.0000 O   0  0  0  0  0  0  0  0  0  0  0  0
   10.6823  -15.4522    0.0000 O   0  0  0  0  0  0  0  0  0  0  0  0
   11.5205  -12.0446    0.0000 O   0  0  0  0  0  0  0  0  0  0  0  0
   13.7865  -12.0770    0.0000 O   0  0  0  0  0  0  0  0  0  0  0  0
   13.8240   -6.7626    0.0000 N   0  0  0  0  0  0  0  0  0  0  0  0
   14.9741   -6.0974    0.0000 O   0  0  0  0  0  0  0  0  0  0  0  0
   12.6798   -6.0880    0.0000 O   0  0  0  0  0  0  0  0  0  0  0  0
  1  2  1  0
  3  4  1  0
  5  6  1  0
  7  8  1  0
 10  9  2  0
 11  9  1  0
 12 10  1  0
 13 11  2  0
 14 12  2  0
 14 13  1  0
 14 15  1  0
 10 16  1  0
 15 17  1  0
  7 17  1  0
  8 18  1  0
  5 18  1  0
  6 19  1  0
  3 19  1  0
  4 20  1  0
  1 20  1  0
 16 21  1  0
  2 21  1  0
 12 22  1  0
 11 23  1  0
 23 24  1  0
 23 25  2  0
M  CHG  2  23   1  24  -1
M  END
>  <Name>  (136) 
(1&3-B)-18C5-17

>  <logK_Lu_z=3.0_T=25_I=1.0>  (136) 
2.74

$$$$

     RDKit          2D

 23 24  0  0  0  0  0  0  0  0999 V2000
   16.0939  -15.1095    0.0000 C   0  0  0  0  0  0  0  0  0  0  0  0
   14.1493  -15.4523    0.0000 C   0  0  0  0  0  0  0  0  0  0  0  0
    9.2254  -12.6095    0.0000 C   0  0  0  0  0  0  0  0  0  0  0  0
   10.4946  -14.1222    0.0000 C   0  0  0  0  0  0  0  0  0  0  0  0
    8.5500   -8.7794    0.0000 C   0  0  0  0  0  0  0  0  0  0  0  0
    9.2254   -6.9239    0.0000 C   0  0  0  0  0  0  0  0  0  0  0  0
    8.5500  -10.7540    0.0000 N   0  0  0  0  0  0  0  0  0  0  0  0
   10.6064  -11.5025    0.0000 C   0  0  0  0  0  0  0  0  0  0  0  0
   12.2829  -10.0958    0.0000 C   0  0  0  0  0  0  0  0  0  0  0  0
   12.2047   -4.4239    0.0000 C   0  0  0  0  0  0  0  0  0  0  0  0
   14.1493   -4.0810    0.0000 C   0  0  0  0  0  0  0  0  0  0  0  0
   10.4946   -5.4112    0.0000 O   0  0  0  0  0  0  0  0  0  0  0  0
   19.7486  -10.7540    0.0000 C   0  0  0  0  0  0  0  0  0  0  0  0
   19.0732  -12.6095    0.0000 C   0  0  0  0  0  0  0  0  0  0  0  0
   17.8039   -5.4112    0.0000 C   0  0  0  0  0  0  0  0  0  0  0  0
   19.0732   -6.9239    0.0000 C   0  0  0  0  0  0  0  0  0  0  0  0
   19.7486   -8.7794    0.0000 N   0  0  0  0  0  0  0  0  0  0  0  0
   16.0157   -9.4376    0.0000 C   0  0  0  0  0  0  0  0  0  0  0  0
   18.0721  -10.1861    0.0000 C   0  0  0  0  0  0  0  0  0  0  0  0
   16.0939   -4.4239    0.0000 O   0  0  0  0  0  0  0  0  0  0  0  0
   14.3393  -10.8443    0.0000 O   0  0  0  0  0  0  0  0  0  0  0  0
   17.8040  -14.1222    0.0000 O   0  0  0  0  0  0  0  0  0  0  0  0
   12.2047  -15.1095    0.0000 O   0  0  0  0  0  0  0  0  0  0  0  0
  1  2  1  0
  3  4  1  0
  5  6  1  0
  5  7  1  0
  3  7  1  0
  8  9  1  0
  7  8  1  0
 10 11  1  0
 10 12  1  0
  6 12  1  0
 13 14  1  0
 15 16  1  0
 16 17  1  0
 13 17  1  0
 18 19  1  0
 17 19  1  0
 15 20  1  0
 11 20  1  0
 18 21  1  0
  9 21  1  0
 14 22  1  0
  1 22  1  0
  2 23  1  0
  4 23  1  0
M  END
>  <Name>  (137) 
(2-2-1)-1

>  <logK_Lu_z=3.0_T=25_I=1.0>  (137) 
12.7

$$$$

     RDKit          2D

 30 29  0  0  0  0  0  0  0  0999 V2000
    9.4403  -10.8784    0.0000 N   0  0  0  0  0  0  0  0  0  0  0  0
   10.7097  -10.0818    0.0000 C   0  0  0  0  0  0  0  0  0  0  0  0
   12.0162  -10.7921    0.0000 C   0  0  0  0  0  0  0  0  0  0  0  0
   13.3222  -10.0614    0.0000 C   0  0  0  0  0  0  0  0  0  0  0  0
   14.6180  -10.8827    0.0000 N   0  0  0  0  0  0  0  0  0  0  0  0
   15.3243   -9.5205    0.0000 C   0  0  0  0  0  0  0  0  0  0  0  0
   16.7742   -9.3657    0.0000 C   0  0  0  0  0  0  0  0  0  0  0  0
   17.6333   -8.1703    0.0000 C   0  0  0  0  0  0  0  0  0  0  0  0
   19.1423   -8.2792    0.0000 N   0  0  0  0  0  0  0  0  0  0  0  0
   15.8080  -11.7662    0.0000 C   0  0  0  0  0  0  0  0  0  0  0  0
   15.9558  -13.2308    0.0000 C   0  0  0  0  0  0  0  0  0  0  0  0
   13.7546  -12.1439    0.0000 C   0  0  0  0  0  0  0  0  0  0  0  0
    8.1335  -10.1238    0.0000 C   0  0  0  0  0  0  0  0  0  0  0  0
    8.1175   -8.6213    0.0000 C   0  0  0  0  0  0  0  0  0  0  0  0
    9.4256  -12.3781    0.0000 C   0  0  0  0  0  0  0  0  0  0  0  0
    8.1366  -13.1500    0.0000 C   0  0  0  0  0  0  0  0  0  0  0  0
   19.9236   -9.5398    0.0000 C   0  0  0  0  0  0  0  0  0  0  0  0
   19.4200  -10.9239    0.0000 C   0  0  0  0  0  0  0  0  0  0  0  0
   19.9180   -6.9806    0.0000 C   0  0  0  0  0  0  0  0  0  0  0  0
   21.4163   -6.9638    0.0000 C   0  0  0  0  0  0  0  0  0  0  0  0
    9.3672   -7.7882    0.0000 O   0  0  0  0  0  0  0  0  0  0  0  0
    6.7796   -7.9165    0.0000 O   0  0  0  0  0  0  0  0  0  0  0  0
    6.7916  -12.4780    0.0000 O   0  0  0  0  0  0  0  0  0  0  0  0
    8.1881  -14.6605    0.0000 O   0  0  0  0  0  0  0  0  0  0  0  0
   17.3553  -13.8330    0.0000 O   0  0  0  0  0  0  0  0  0  0  0  0
   14.8602  -14.2708    0.0000 O   0  0  0  0  0  0  0  0  0  0  0  0
   20.3898  -12.1016    0.0000 O   0  0  0  0  0  0  0  0  0  0  0  0
   17.9999  -11.3144    0.0000 O   0  0  0  0  0  0  0  0  0  0  0  0
   22.2560   -8.2102    0.0000 O   0  0  0  0  0  0  0  0  0  0  0  0
   22.1226   -5.6261    0.0000 O   0  0  0  0  0  0  0  0  0  0  0  0
  1  2  1  0
  2  3  1  0
  3  4  1  0
  4  5  1  0
  5  6  1  0
  6  7  1  0
  7  8  1  0
  8  9  1  0
  5 10  1  0
 10 11  1  0
  5 12  1  0
  1 13  1  0
 13 14  1  0
  1 15  1  0
 15 16  1  0
  9 17  1  0
 17 18  1  0
  9 19  1  0
 19 20  1  0
 14 21  2  0
 14 22  1  0
 16 23  1  0
 16 24  2  0
 11 25  1  0
 11 26  2  0
 18 27  1  0
 18 28  2  0
 20 29  1  0
 20 30  2  0
M  CHG  1   5   1
M  END
>  <Name>  (138) 
(Bis[3-(bis(carboxymethyl)amino)propyllmethylammonio}acetate

>  <logK_Lu_z=3.0_T=25_I=1.0>  (138) 
9.83

$$$$

     RDKit          2D

 24 23  0  0  0  0  0  0  0  0999 V2000
   12.7091  -12.9934    0.0000 N   0  0  0  0  0  0  0  0  0  0  0  0
   14.6837  -14.1324    0.0000 C   0  0  0  0  0  0  0  0  0  0  0  0
   16.6273  -12.9934    0.0000 C   0  0  0  0  0  0  0  0  0  0  0  0
   18.6020  -14.1324    0.0000 N   0  0  0  0  0  0  0  0  0  0  0  0
   18.6020  -16.3953    0.0000 C   0  0  0  0  0  0  0  0  0  0  0  0
   20.5762  -17.5344    0.0000 C   0  0  0  0  0  0  0  0  0  0  0  0
   20.5762  -12.9934    0.0000 C   0  0  0  0  0  0  0  0  0  0  0  0
   20.5762  -10.7153    0.0000 C   0  0  0  0  0  0  0  0  0  0  0  0
   12.7091  -10.7153    0.0000 C   0  0  0  0  0  0  0  0  0  0  0  0
   10.7349   -9.5914    0.0000 C   0  0  0  0  0  0  0  0  0  0  0  0
   10.7349  -14.1324    0.0000 C   0  0  0  0  0  0  0  0  0  0  0  0
   10.7349  -16.4104    0.0000 C   0  0  0  0  0  0  0  0  0  0  0  0
    8.7607  -10.7304    0.0000 O   0  0  0  0  0  0  0  0  0  0  0  0
   10.7349   -7.3134    0.0000 O   0  0  0  0  0  0  0  0  0  0  0  0
   12.7091  -17.5344    0.0000 O   0  0  0  0  0  0  0  0  0  0  0  0
    8.7607  -17.5494    0.0000 O   0  0  0  0  0  0  0  0  0  0  0  0
   22.5504  -16.3953    0.0000 O   0  0  0  0  0  0  0  0  0  0  0  0
   20.5762  -19.8124    0.0000 O   0  0  0  0  0  0  0  0  0  0  0  0
   18.6020   -9.5763    0.0000 O   0  0  0  0  0  0  0  0  0  0  0  0
   22.5504   -9.5763    0.0000 O   0  0  0  0  0  0  0  0  0  0  0  0
   14.6837  -16.3953    0.0000 C   0  0  0  0  0  0  0  0  0  0  0  0
   16.6273  -17.5344    0.0000 C   0  0  0  0  0  0  0  0  0  0  0  0
   16.6273  -19.8124    0.0000 C   0  0  0  0  0  0  0  0  0  0  0  0
   14.6837  -20.9514    0.0000 C   0  0  0  0  0  0  0  0  0  0  0  0
  1  2  1  0
  2  3  1  0
  3  4  1  0
  4  5  1  0
  5  6  1  0
  4  7  1  0
  7  8  1  0
  1  9  1  0
  9 10  1  0
  1 11  1  0
 11 12  1  0
 10 13  1  0
 10 14  2  0
 12 15  2  0
 12 16  1  0
  6 17  2  0
  6 18  1  0
  8 19  1  0
  8 20  2  0
  2 21  1  0
 21 22  1  0
 22 23  1  0
 23 24  1  0
M  END
>  <Name>  (139) 
(Butyl-ethylene)dinitrilotetraacetic

>  <logK_Lu_z=3.0_T=25_I=1.0>  (139) 
20.8

$$$$

     RDKit          2D

 26 25  0  0  0  0  0  0  0  0999 V2000
   11.3022  -10.4112    0.0000 N   0  0  0  0  0  0  0  0  0  0  0  0
   13.2750  -11.5503    0.0000 C   0  0  0  0  0  0  0  0  0  0  0  0
   15.2479  -10.4112    0.0000 C   0  0  0  0  0  0  0  0  0  0  0  0
   17.2207  -11.5502    0.0000 N   0  0  0  0  0  0  0  0  0  0  0  0
   17.2207  -13.8283    0.0000 C   0  0  0  0  0  0  0  0  0  0  0  0
   19.1936  -14.9673    0.0000 C   0  0  0  0  0  0  0  0  0  0  0  0
   19.1935  -10.4112    0.0000 C   0  0  0  0  0  0  0  0  0  0  0  0
   19.1935   -8.1332    0.0000 C   0  0  0  0  0  0  0  0  0  0  0  0
   11.3022   -8.1332    0.0000 C   0  0  0  0  0  0  0  0  0  0  0  0
    9.3293   -6.9942    0.0000 C   0  0  0  0  0  0  0  0  0  0  0  0
    9.3293  -11.5503    0.0000 C   0  0  0  0  0  0  0  0  0  0  0  0
    9.3293  -13.8283    0.0000 C   0  0  0  0  0  0  0  0  0  0  0  0
    7.3565   -8.1332    0.0000 O   0  0  0  0  0  0  0  0  0  0  0  0
    9.3293   -4.7161    0.0000 O   0  0  0  0  0  0  0  0  0  0  0  0
   11.3022  -14.9673    0.0000 O   0  0  0  0  0  0  0  0  0  0  0  0
    7.3565  -14.9673    0.0000 O   0  0  0  0  0  0  0  0  0  0  0  0
   21.1664  -13.8283    0.0000 O   0  0  0  0  0  0  0  0  0  0  0  0
   19.1936  -17.2453    0.0000 O   0  0  0  0  0  0  0  0  0  0  0  0
   17.2207   -6.9942    0.0000 O   0  0  0  0  0  0  0  0  0  0  0  0
   21.1664   -6.9942    0.0000 O   0  0  0  0  0  0  0  0  0  0  0  0
   13.2750  -13.8283    0.0000 C   0  0  0  0  0  0  0  0  0  0  0  0
   15.2479  -14.9673    0.0000 C   0  0  0  0  0  0  0  0  0  0  0  0
   15.2479  -17.2453    0.0000 C   0  0  0  0  0  0  0  0  0  0  0  0
   17.2207  -18.3844    0.0000 C   0  0  0  0  0  0  0  0  0  0  0  0
   17.2207  -20.6624    0.0000 C   0  0  0  0  0  0  0  0  0  0  0  0
   19.1936  -21.8014    0.0000 C   0  0  0  0  0  0  0  0  0  0  0  0
  1  2  1  0
  2  3  1  0
  3  4  1  0
  4  5  1  0
  5  6  1  0
  4  7  1  0
  7  8  1  0
  1  9  1  0
  9 10  1  0
  1 11  1  0
 11 12  1  0
 10 13  1  0
 10 14  2  0
 12 15  2  0
 12 16  1  0
  6 17  2  0
  6 18  1  0
  8 19  1  0
  8 20  2  0
  2 21  1  0
 21 22  1  0
 22 23  1  0
 23 24  1  0
 24 25  1  0
 25 26  1  0
M  END
>  <Name>  (140) 
(Hexyl-ethylene)dinitrilotetraacetic

>  <logK_Lu_z=3.0_T=25_I=1.0>  (140) 
20.8

$$$$

     RDKit          2D

 23 22  0  0  0  0  0  0  0  0999 V2000
   11.5265   -9.7062    0.0000 N   0  0  0  0  0  0  0  0  0  0  0  0
   13.4994  -10.8452    0.0000 C   0  0  0  0  0  0  0  0  0  0  0  0
   15.4722   -9.7062    0.0000 C   0  0  0  0  0  0  0  0  0  0  0  0
   17.4450  -10.8452    0.0000 N   0  0  0  0  0  0  0  0  0  0  0  0
   17.4450  -13.1232    0.0000 C   0  0  0  0  0  0  0  0  0  0  0  0
   19.4179  -14.2622    0.0000 C   0  0  0  0  0  0  0  0  0  0  0  0
   19.4179   -9.7062    0.0000 C   0  0  0  0  0  0  0  0  0  0  0  0
   19.4179   -7.4281    0.0000 C   0  0  0  0  0  0  0  0  0  0  0  0
   11.5265   -7.4281    0.0000 C   0  0  0  0  0  0  0  0  0  0  0  0
    9.5537   -6.2891    0.0000 C   0  0  0  0  0  0  0  0  0  0  0  0
    9.5537  -10.8452    0.0000 C   0  0  0  0  0  0  0  0  0  0  0  0
    9.5537  -13.1232    0.0000 C   0  0  0  0  0  0  0  0  0  0  0  0
    7.5808   -7.4281    0.0000 O   0  0  0  0  0  0  0  0  0  0  0  0
    9.5537   -4.0111    0.0000 O   0  0  0  0  0  0  0  0  0  0  0  0
   11.5265  -14.2622    0.0000 O   0  0  0  0  0  0  0  0  0  0  0  0
    7.5808  -14.2622    0.0000 O   0  0  0  0  0  0  0  0  0  0  0  0
   21.3907  -13.1232    0.0000 O   0  0  0  0  0  0  0  0  0  0  0  0
   19.4179  -16.5403    0.0000 O   0  0  0  0  0  0  0  0  0  0  0  0
   17.4450   -6.2891    0.0000 O   0  0  0  0  0  0  0  0  0  0  0  0
   21.3907   -6.2891    0.0000 O   0  0  0  0  0  0  0  0  0  0  0  0
   13.4994  -13.1232    0.0000 C   0  0  0  0  0  0  0  0  0  0  0  0
   15.4722  -14.2622    0.0000 C   0  0  0  0  0  0  0  0  0  0  0  0
   15.4722  -16.5403    0.0000 C   0  0  0  0  0  0  0  0  0  0  0  0
  1  2  1  0
  2  3  1  0
  3  4  1  0
  4  5  1  0
  5  6  1  0
  4  7  1  0
  7  8  1  0
  1  9  1  0
  9 10  1  0
  1 11  1  0
 11 12  1  0
 10 13  1  0
 10 14  2  0
 12 15  2  0
 12 16  1  0
  6 17  2  0
  6 18  1  0
  8 19  1  0
  8 20  2  0
  2 21  1  0
 21 22  1  0
 22 23  1  0
M  END
>  <Name>  (141) 
(Propyl-ethylene)dinitrilotetraacetic

>  <logK_Lu_z=3.0_T=25_I=1.0>  (141) 
21.0

$$$$

     RDKit          2D

 42 46  0  0  0  0  0  0  0  0999 V2000
   16.9308   -8.2631    0.0000 C   0  0  0  0  0  0  0  0  0  0  0  0
   17.3418   -6.9982    0.0000 C   0  0  0  0  0  0  0  0  0  0  0  0
   18.0068   -9.0449    0.0000 N   0  0  0  0  0  0  0  0  0  0  0  0
   18.6718   -6.9982    0.0000 C   0  0  0  0  0  0  0  0  0  0  0  0
   19.0828   -8.2631    0.0000 N   0  0  0  0  0  0  0  0  0  0  0  0
   16.8550  -11.0399    0.0000 C   0  0  0  0  0  0  0  0  0  0  0  0
   16.8550  -12.3699    0.0000 C   0  0  0  0  0  0  0  0  0  0  0  0
   15.7032  -10.3749    0.0000 C   0  0  0  0  0  0  0  0  0  0  0  0
   15.7032  -13.0349    0.0000 C   0  0  0  0  0  0  0  0  0  0  0  0
   14.5514  -11.0399    0.0000 C   0  0  0  0  0  0  0  0  0  0  0  0
   14.5514  -12.3699    0.0000 C   0  0  0  0  0  0  0  0  0  0  0  0
   18.0068  -10.3749    0.0000 C   0  0  0  0  0  0  0  0  0  0  0  0
   18.0068  -13.0349    0.0000 C   0  0  0  0  0  0  0  0  0  0  0  0
   13.3996  -13.0349    0.0000 C   0  0  0  0  0  0  0  0  0  0  0  0
   13.3996  -10.3749    0.0000 C   0  0  0  0  0  0  0  0  0  0  0  0
   18.0068  -14.3649    0.0000 N   0  0  0  0  0  0  0  0  0  0  0  0
   19.0828  -15.1466    0.0000 N   0  0  0  0  0  0  0  0  0  0  0  0
   16.9308  -15.1466    0.0000 C   0  0  0  0  0  0  0  0  0  0  0  0
   18.6718  -16.4115    0.0000 C   0  0  0  0  0  0  0  0  0  0  0  0
   17.3418  -16.4115    0.0000 C   0  0  0  0  0  0  0  0  0  0  0  0
   12.7346  -16.4115    0.0000 C   0  0  0  0  0  0  0  0  0  0  0  0
   12.3236  -15.1466    0.0000 N   0  0  0  0  0  0  0  0  0  0  0  0
   14.0646  -16.4115    0.0000 C   0  0  0  0  0  0  0  0  0  0  0  0
   13.3996  -14.3649    0.0000 N   0  0  0  0  0  0  0  0  0  0  0  0
   14.4756  -15.1466    0.0000 C   0  0  0  0  0  0  0  0  0  0  0  0
   12.7346   -6.9982    0.0000 C   0  0  0  0  0  0  0  0  0  0  0  0
   14.0646   -6.9982    0.0000 C   0  0  0  0  0  0  0  0  0  0  0  0
   12.3236   -8.2631    0.0000 N   0  0  0  0  0  0  0  0  0  0  0  0
   14.4756   -8.2631    0.0000 C   0  0  0  0  0  0  0  0  0  0  0  0
   13.3996   -9.0449    0.0000 N   0  0  0  0  0  0  0  0  0  0  0  0
   19.4536   -5.9222    0.0000 C   0  0  0  0  0  0  0  0  0  0  0  0
   20.7763   -6.0612    0.0000 O   0  0  0  0  0  0  0  0  0  0  0  0
   18.9126   -4.7072    0.0000 O   0  0  0  0  0  0  0  0  0  0  0  0
   19.4536  -17.4875    0.0000 C   0  0  0  0  0  0  0  0  0  0  0  0
   18.9126  -18.7025    0.0000 O   0  0  0  0  0  0  0  0  0  0  0  0
   20.7763  -17.3485    0.0000 O   0  0  0  0  0  0  0  0  0  0  0  0
   11.9528  -17.4875    0.0000 C   0  0  0  0  0  0  0  0  0  0  0  0
   10.6301  -17.3485    0.0000 O   0  0  0  0  0  0  0  0  0  0  0  0
   12.4938  -18.7025    0.0000 O   0  0  0  0  0  0  0  0  0  0  0  0
   11.9528   -5.9222    0.0000 C   0  0  0  0  0  0  0  0  0  0  0  0
   12.4938   -4.7072    0.0000 O   0  0  0  0  0  0  0  0  0  0  0  0
   10.6301   -6.0612    0.0000 O   0  0  0  0  0  0  0  0  0  0  0  0
  2  1  2  0
  3  1  1  0
  4  2  1  0
  5  3  1  0
  5  4  2  0
  7  6  1  0
  8  6  2  0
  9  7  2  0
 10  8  1  0
 11  9  1  0
 11 10  2  0
  6 12  1  0
  7 13  1  0
 11 14  1  0
 10 15  1  0
 17 16  1  0
 18 16  1  0
 19 17  2  0
 20 18  2  0
 20 19  1  0
 13 16  1  0
  3 12  1  0
 22 21  2  0
 23 21  1  0
 24 22  1  0
 25 23  2  0
 25 24  1  0
 14 24  1  0
 27 26  1  0
 28 26  2  0
 29 27  2  0
 30 28  1  0
 30 29  1  0
 15 30  1  0
  4 31  1  0
 31 32  2  0
 31 33  1  0
 19 34  1  0
 34 35  1  0
 34 36  2  0
 21 37  1  0
 37 38  1  0
 37 39  2  0
 26 40  1  0
 40 41  1  0
 40 42  2  0
M  END
>  <Name>  (142) 
1&2&4&5-tetrakis(pyrazol-1-ylmethyl-3-carboxylic%acid)-benzene

>  <logK_Lu_z=3.0_T=25_I=1.0>  (142) 
12.8

$$$$

     RDKit          2D

 12 11  0  0  0  0  0  0  0  0999 V2000
   15.4253  -14.4767    0.0000 S   0  0  0  0  0  0  0  0  0  0  0  0
   18.4456  -14.4767    0.0000 C   0  0  0  0  0  0  0  0  0  0  0  0
   19.9558  -11.8610    0.0000 C   0  0  0  0  0  0  0  0  0  0  0  0
   22.9761  -11.8610    0.0000 S   0  0  0  0  0  0  0  0  0  0  0  0
   24.4863   -9.2453    0.0000 C   0  0  0  0  0  0  0  0  0  0  0  0
   27.5066   -9.2453    0.0000 C   0  0  0  0  0  0  0  0  0  0  0  0
   13.9151  -17.0924    0.0000 C   0  0  0  0  0  0  0  0  0  0  0  0
   10.8948  -17.0924    0.0000 C   0  0  0  0  0  0  0  0  0  0  0  0
   29.0168  -11.8610    0.0000 O   0  0  0  0  0  0  0  0  0  0  0  0
   29.0168   -6.6297    0.0000 O   0  0  0  0  0  0  0  0  0  0  0  0
    9.3846  -14.4767    0.0000 O   0  0  0  0  0  0  0  0  0  0  0  0
    9.3846  -19.7081    0.0000 O   0  0  0  0  0  0  0  0  0  0  0  0
  1  2  1  0
  2  3  1  0
  3  4  1  0
  4  5  1  0
  5  6  1  0
  1  7  1  0
  7  8  1  0
  6  9  1  0
  6 10  2  0
  8 11  1  0
  8 12  2  0
M  END
>  <Name>  (143) 
1&2-Bis(carboxymethylthio)ethane

>  <logK_Lu_z=3.0_T=25_I=1.0>  (143) 
4.84

$$$$

     RDKit          2D

 22 21  0  0  0  0  0  0  0  0999 V2000
   13.0284  -12.5167    0.0000 C   0  0  0  0  0  0  0  0  0  0  0  0
   14.8376  -11.4713    0.0000 C   0  0  0  0  0  0  0  0  0  0  0  0
   14.8376   -9.3504    0.0000 C   0  0  0  0  0  0  0  0  0  0  0  0
   13.0284   -8.2902    0.0000 C   0  0  0  0  0  0  0  0  0  0  0  0
   16.6756  -12.5167    0.0000 N   0  0  0  0  0  0  0  0  0  0  0  0
   11.1903  -11.4713    0.0000 N   0  0  0  0  0  0  0  0  0  0  0  0
   16.6756  -14.6376    0.0000 C   0  0  0  0  0  0  0  0  0  0  0  0
   18.5133  -15.6979    0.0000 C   0  0  0  0  0  0  0  0  0  0  0  0
   18.3011  -11.1741    0.0000 C   0  0  0  0  0  0  0  0  0  0  0  0
   17.9477   -9.0821    0.0000 C   0  0  0  0  0  0  0  0  0  0  0  0
   11.1903   -9.3504    0.0000 C   0  0  0  0  0  0  0  0  0  0  0  0
    9.3526   -8.2902    0.0000 C   0  0  0  0  0  0  0  0  0  0  0  0
    9.3526  -12.5167    0.0000 C   0  0  0  0  0  0  0  0  0  0  0  0
    9.3526  -14.6376    0.0000 C   0  0  0  0  0  0  0  0  0  0  0  0
   20.3510  -14.6376    0.0000 O   0  0  0  0  0  0  0  0  0  0  0  0
   18.5133  -17.8184    0.0000 O   0  0  0  0  0  0  0  0  0  0  0  0
   15.9544   -8.3468    0.0000 O   0  0  0  0  0  0  0  0  0  0  0  0
   19.5736   -7.7246    0.0000 O   0  0  0  0  0  0  0  0  0  0  0  0
    7.5149   -9.3504    0.0000 O   0  0  0  0  0  0  0  0  0  0  0  0
    9.3526   -6.1697    0.0000 O   0  0  0  0  0  0  0  0  0  0  0  0
   11.1903  -15.6979    0.0000 O   0  0  0  0  0  0  0  0  0  0  0  0
    7.5149  -15.6979    0.0000 O   0  0  0  0  0  0  0  0  0  0  0  0
  1  2  1  0
  2  3  1  0
  3  4  1  0
  2  5  1  0
  1  6  1  0
  5  7  1  0
  7  8  1  0
  5  9  1  0
  9 10  1  0
  6 11  1  0
 11 12  1  0
  6 13  1  0
 13 14  1  0
  8 15  1  0
  8 16  2  0
 10 17  1  0
 10 18  2  0
 12 19  1  0
 12 20  2  0
 14 21  1  0
 14 22  2  0
M  END
>  <Name>  (144) 
1&2-Diaminobutane-N&N&N'&N'-tetraethanoic

>  <logK_Lu_z=3.0_T=25_I=1.0>  (144) 
20.97

$$$$

     RDKit          2D

 26 26  0  0  0  0  0  0  0  0999 V2000
   12.7764  -18.0600    0.0000 N   0  0  0  0  0  0  0  0  0  0  0  0
   14.1926  -15.6466    0.0000 C   0  0  0  0  0  0  0  0  0  0  0  0
   12.7764  -13.2333    0.0000 C   0  0  0  0  0  0  0  0  0  0  0  0
   14.1926  -10.8200    0.0000 O   0  0  0  0  0  0  0  0  0  0  0  0
   16.9672  -10.8200    0.0000 C   0  0  0  0  0  0  0  0  0  0  0  0
   18.3400   -8.4066    0.0000 C   0  0  0  0  0  0  0  0  0  0  0  0
   21.1291   -8.4066    0.0000 O   0  0  0  0  0  0  0  0  0  0  0  0
   22.5019  -10.8200    0.0000 C   0  0  0  0  0  0  0  0  0  0  0  0
   25.3199  -10.8200    0.0000 C   0  0  0  0  0  0  0  0  0  0  0  0
   26.6928  -13.2333    0.0000 N   0  0  0  0  0  0  0  0  0  0  0  0
   25.3199  -15.6466    0.0000 C   0  0  0  0  0  0  0  0  0  0  0  0
   26.6928  -18.0600    0.0000 C   0  0  0  0  0  0  0  0  0  0  0  0
   25.3199  -20.4444    0.0000 O   0  0  0  0  0  0  0  0  0  0  0  0
   22.5019  -20.4444    0.0000 C   0  0  0  0  0  0  0  0  0  0  0  0
   21.1291  -22.8577    0.0000 C   0  0  0  0  0  0  0  0  0  0  0  0
   18.3400  -22.8577    0.0000 O   0  0  0  0  0  0  0  0  0  0  0  0
   16.9672  -20.4444    0.0000 C   0  0  0  0  0  0  0  0  0  0  0  0
   14.1926  -20.4444    0.0000 C   0  0  0  0  0  0  0  0  0  0  0  0
   29.3242  -12.3233    0.0000 C   0  0  0  0  0  0  0  0  0  0  0  0
   31.4280  -14.1472    0.0000 C   0  0  0  0  0  0  0  0  0  0  0  0
   10.1466  -18.9747    0.0000 C   0  0  0  0  0  0  0  0  0  0  0  0
    8.0395  -17.1547    0.0000 C   0  0  0  0  0  0  0  0  0  0  0  0
    8.5622  -14.4198    0.0000 O   0  0  0  0  0  0  0  0  0  0  0  0
    5.4097  -18.0694    0.0000 O   0  0  0  0  0  0  0  0  0  0  0  0
   34.0594  -13.2372    0.0000 O   0  0  0  0  0  0  0  0  0  0  0  0
   30.9004  -16.8811    0.0000 O   0  0  0  0  0  0  0  0  0  0  0  0
  1  2  1  0
  2  3  1  0
  3  4  1  0
  4  5  1  0
  5  6  1  0
  6  7  1  0
  7  8  1  0
  8  9  1  0
  9 10  1  0
 10 11  1  0
 11 12  1  0
 12 13  1  0
 13 14  1  0
 14 15  1  0
 15 16  1  0
 16 17  1  0
 17 18  1  0
 18  1  1  0
 10 19  1  0
 19 20  1  0
  1 21  1  0
 21 22  1  0
 22 23  2  0
 22 24  1  0
 20 25  1  0
 20 26  2  0
M  END
>  <Name>  (145) 
1&4&10&13-Tetraoxa-7&16-diazacyclooctadecane-7&16-diethanoic

>  <logK_Lu_z=3.0_T=25_I=1.0>  (145) 
10.84

$$$$

     RDKit          2D

 22 22  0  0  0  0  0  0  0  0999 V2000
   15.4246   -8.5277    0.0000 C   0  0  0  0  0  0  0  0  0  0  0  0
   16.8762   -7.6772    0.0000 C   0  0  0  0  0  0  0  0  0  0  0  0
   21.4632  -13.0424    0.0000 C   0  0  0  0  0  0  0  0  0  0  0  0
   22.5660  -11.7656    0.0000 C   0  0  0  0  0  0  0  0  0  0  0  0
   18.3436  -15.2586    0.0000 C   0  0  0  0  0  0  0  0  0  0  0  0
   18.3315  -13.5631    0.0000 C   0  0  0  0  0  0  0  0  0  0  0  0
   19.8059  -12.7257    0.0000 N   0  0  0  0  0  0  0  0  0  0  0  0
   18.3291  -10.2046    0.0000 C   0  0  0  0  0  0  0  0  0  0  0  0
   19.7852  -11.0453    0.0000 C   0  0  0  0  0  0  0  0  0  0  0  0
   12.4921  -10.1917    0.0000 C   0  0  0  0  0  0  0  0  0  0  0  0
   12.5029   -8.5093    0.0000 C   0  0  0  0  0  0  0  0  0  0  0  0
   12.5086  -13.5784    0.0000 C   0  0  0  0  0  0  0  0  0  0  0  0
   11.0298  -12.7246    0.0000 C   0  0  0  0  0  0  0  0  0  0  0  0
   11.0405  -11.0422    0.0000 N   0  0  0  0  0  0  0  0  0  0  0  0
   13.9615  -16.1059    0.0000 C   0  0  0  0  0  0  0  0  0  0  0  0
   15.4131  -15.2553    0.0000 C   0  0  0  0  0  0  0  0  0  0  0  0
   12.4978  -15.2608    0.0000 O   0  0  0  0  0  0  0  0  0  0  0  0
   16.8692  -16.0960    0.0000 O   0  0  0  0  0  0  0  0  0  0  0  0
   18.3399   -8.5222    0.0000 O   0  0  0  0  0  0  0  0  0  0  0  0
   13.9458   -7.6739    0.0000 O   0  0  0  0  0  0  0  0  0  0  0  0
   22.0117  -10.1720    0.0000 O   0  0  0  0  0  0  0  0  0  0  0  0
   24.2233  -12.0823    0.0000 O   0  0  0  0  0  0  0  0  0  0  0  0
  1  2  1  0
  3  4  1  0
  5  6  1  0
  6  7  1  0
  8  9  1  0
  7  9  1  0
  3  7  1  0
 10 11  1  0
 12 13  1  0
 13 14  1  0
 10 14  1  0
 15 16  1  0
 15 17  1  0
 12 17  1  0
 16 18  1  0
  5 18  1  0
  8 19  1  0
  2 19  1  0
  1 20  1  0
 11 20  1  0
  4 21  1  0
  4 22  2  0
M  END
>  <Name>  (146) 
1&4&10&13-Tetraoxa-7&16-diazacyclooctadecane-7-ethanoic

>  <logK_Lu_z=3.0_T=25_I=1.0>  (146) 
6.01

$$$$

     RDKit          2D

 23 23  0  0  0  0  0  0  0  0999 V2000
   19.1293  -13.3901    0.0000 C   0  0  0  0  0  0  0  0  0  0  0  0
   20.3947  -12.4080    0.0000 C   0  0  0  0  0  0  0  0  0  0  0  0
   16.7300  -14.0802    0.0000 C   0  0  0  0  0  0  0  0  0  0  0  0
   15.2216  -13.6600    0.0000 C   0  0  0  0  0  0  0  0  0  0  0  0
   17.6254  -10.1886    0.0000 C   0  0  0  0  0  0  0  0  0  0  0  0
   16.7300  -11.4904    0.0000 C   0  0  0  0  0  0  0  0  0  0  0  0
   17.6461  -12.7853    0.0000 N   0  0  0  0  0  0  0  0  0  0  0  0
   12.6801  -12.8266    0.0000 C   0  0  0  0  0  0  0  0  0  0  0  0
   12.6801  -14.4452    0.0000 C   0  0  0  0  0  0  0  0  0  0  0  0
   12.6663  -10.1542    0.0000 C   0  0  0  0  0  0  0  0  0  0  0  0
   11.1372  -10.7052    0.0000 C   0  0  0  0  0  0  0  0  0  0  0  0
   11.1372  -12.3238    0.0000 N   0  0  0  0  0  0  0  0  0  0  0  0
    9.5818  -12.7062    0.0000 C   0  0  0  0  0  0  0  0  0  0  0  0
    8.4729  -11.5503    0.0000 C   0  0  0  0  0  0  0  0  0  0  0  0
   14.2298   -8.0535    0.0000 C   0  0  0  0  0  0  0  0  0  0  0  0
   15.2010   -9.3483    0.0000 C   0  0  0  0  0  0  0  0  0  0  0  0
   12.7007   -8.5700    0.0000 O   0  0  0  0  0  0  0  0  0  0  0  0
   16.7300   -8.9144    0.0000 O   0  0  0  0  0  0  0  0  0  0  0  0
   14.2642  -14.9411    0.0000 O   0  0  0  0  0  0  0  0  0  0  0  0
   20.1768  -10.8211    0.0000 O   0  0  0  0  0  0  0  0  0  0  0  0
   21.8779  -13.0128    0.0000 O   0  0  0  0  0  0  0  0  0  0  0  0
    8.9195  -10.0120    0.0000 O   0  0  0  0  0  0  0  0  0  0  0  0
    6.9174  -11.9327    0.0000 O   0  0  0  0  0  0  0  0  0  0  0  0
  1  2  1  0
  3  4  1  0
  5  6  1  0
  6  7  1  0
  3  7  1  0
  1  7  1  0
  8  9  1  0
 10 11  1  0
 11 12  1  0
  8 12  1  0
 13 14  1  0
 12 13  1  0
 15 16  1  0
 15 17  1  0
 10 17  1  0
 16 18  1  0
  5 18  1  0
  4 19  1  0
  9 19  1  0
  2 20  2  0
  2 21  1  0
 14 22  2  0
 14 23  1  0
M  END
>  <Name>  (147) 
1&4&10-Trioxa-7&13-diazacyclopentadecane-7&13-diethanoic

>  <logK_Lu_z=3.0_T=25_I=1.0>  (147) 
10.33

$$$$

     RDKit          2D

 42 42  0  0  0  0  0  0  0  0999 V2000
   11.2612  -10.3798    0.0000 N   0  0  0  0  0  0  0  0  0  0  0  0
   12.5564  -10.3890    0.0000 C   0  0  0  0  0  0  0  0  0  0  0  0
   13.1960   -9.2627    0.0000 C   0  0  0  0  0  0  0  0  0  0  0  0
   14.4912   -9.2719    0.0000 N   0  0  0  0  0  0  0  0  0  0  0  0
   15.1334  -10.3841    0.0000 C   0  0  0  0  0  0  0  0  0  0  0  0
   16.4186  -10.3759    0.0000 C   0  0  0  0  0  0  0  0  0  0  0  0
   17.0641  -11.4940    0.0000 N   0  0  0  0  0  0  0  0  0  0  0  0
   16.4144  -12.6029    0.0000 C   0  0  0  0  0  0  0  0  0  0  0  0
   17.0666  -13.7325    0.0000 C   0  0  0  0  0  0  0  0  0  0  0  0
   16.4169  -14.8414    0.0000 N   0  0  0  0  0  0  0  0  0  0  0  0
   15.1317  -14.8496    0.0000 C   0  0  0  0  0  0  0  0  0  0  0  0
   14.4820  -15.9585    0.0000 C   0  0  0  0  0  0  0  0  0  0  0  0
   13.2084  -15.9600    0.0000 N   0  0  0  0  0  0  0  0  0  0  0  0
   12.5562  -14.8304    0.0000 C   0  0  0  0  0  0  0  0  0  0  0  0
   11.2711  -14.8386    0.0000 C   0  0  0  0  0  0  0  0  0  0  0  0
   10.6256  -13.7205    0.0000 N   0  0  0  0  0  0  0  0  0  0  0  0
   11.2753  -12.6116    0.0000 C   0  0  0  0  0  0  0  0  0  0  0  0
   10.6331  -11.4994    0.0000 C   0  0  0  0  0  0  0  0  0  0  0  0
   10.2858   -9.5373    0.0000 C   0  0  0  0  0  0  0  0  0  0  0  0
   10.5278   -8.2714    0.0000 C   0  0  0  0  0  0  0  0  0  0  0  0
   14.7363   -8.0066    0.0000 C   0  0  0  0  0  0  0  0  0  0  0  0
   15.9546   -7.5861    0.0000 C   0  0  0  0  0  0  0  0  0  0  0  0
   18.2816  -11.0714    0.0000 C   0  0  0  0  0  0  0  0  0  0  0  0
   19.2564  -11.9146    0.0000 C   0  0  0  0  0  0  0  0  0  0  0  0
   17.3907  -15.6856    0.0000 C   0  0  0  0  0  0  0  0  0  0  0  0
   17.1464  -16.9511    0.0000 C   0  0  0  0  0  0  0  0  0  0  0  0
   12.9679  -17.2262    0.0000 C   0  0  0  0  0  0  0  0  0  0  0  0
   11.7511  -17.6510    0.0000 C   0  0  0  0  0  0  0  0  0  0  0  0
    9.4071  -14.1404    0.0000 C   0  0  0  0  0  0  0  0  0  0  0  0
    8.4342  -13.2951    0.0000 C   0  0  0  0  0  0  0  0  0  0  0  0
   11.7450   -7.8480    0.0000 O   0  0  0  0  0  0  0  0  0  0  0  0
    9.5524   -7.4290    0.0000 O   0  0  0  0  0  0  0  0  0  0  0  0
   16.9278   -8.4310    0.0000 O   0  0  0  0  0  0  0  0  0  0  0  0
   16.1996   -6.3208    0.0000 O   0  0  0  0  0  0  0  0  0  0  0  0
   20.4740  -11.4921    0.0000 O   0  0  0  0  0  0  0  0  0  0  0  0
   19.0135  -13.1804    0.0000 O   0  0  0  0  0  0  0  0  0  0  0  0
   18.1202  -17.7953    0.0000 O   0  0  0  0  0  0  0  0  0  0  0  0
   15.9284  -17.3723    0.0000 O   0  0  0  0  0  0  0  0  0  0  0  0
   11.5106  -18.9171    0.0000 O   0  0  0  0  0  0  0  0  0  0  0  0
   10.7748  -16.8096    0.0000 O   0  0  0  0  0  0  0  0  0  0  0  0
    7.2157  -13.7150    0.0000 O   0  0  0  0  0  0  0  0  0  0  0  0
    8.6798  -12.0299    0.0000 O   0  0  0  0  0  0  0  0  0  0  0  0
  1  2  1  0
  2  3  1  0
  3  4  1  0
  4  5  1  0
  5  6  1  0
  6  7  1  0
  7  8  1  0
  8  9  1  0
  9 10  1  0
 10 11  1  0
 11 12  1  0
 12 13  1  0
 13 14  1  0
 14 15  1  0
 15 16  1  0
 16 17  1  0
 17 18  1  0
 18  1  1  0
  1 19  1  0
 19 20  1  0
  4 21  1  0
 21 22  1  0
  7 23  1  0
 23 24  1  0
 10 25  1  0
 25 26  1  0
 13 27  1  0
 27 28  1  0
 16 29  1  0
 29 30  1  0
 20 31  2  0
 20 32  1  0
 22 33  2  0
 22 34  1  0
 24 35  1  0
 24 36  2  0
 26 37  1  0
 26 38  2  0
 28 39  1  0
 28 40  2  0
 30 41  1  0
 30 42  2  0
M  END
>  <Name>  (148) 
1&4&7&10&13&16-Hexaazacyclooctadecane-1&4&7&10&13&16-hexaethanoic

>  <logK_Lu_z=3.0_T=25_I=1.0>  (148) 
24.26

$$$$

     RDKit          2D

 35 35  0  0  0  0  0  0  0  0999 V2000
   12.3262   -6.9462    0.0000 N   0  0  0  0  0  0  0  0  0  0  0  0
   14.2245   -6.0722    0.0000 C   0  0  0  0  0  0  0  0  0  0  0  0
   15.6688   -7.5453    0.0000 C   0  0  0  0  0  0  0  0  0  0  0  0
   17.6051   -6.7142    0.0000 N   0  0  0  0  0  0  0  0  0  0  0  0
   19.0860   -8.3237    0.0000 C   0  0  0  0  0  0  0  0  0  0  0  0
   18.0197  -10.1705    0.0000 C   0  0  0  0  0  0  0  0  0  0  0  0
   19.4489  -11.7606    0.0000 N   0  0  0  0  0  0  0  0  0  0  0  0
   18.3826  -13.6075    0.0000 C   0  0  0  0  0  0  0  0  0  0  0  0
   16.2749  -13.2289    0.0000 C   0  0  0  0  0  0  0  0  0  0  0  0
   15.1920  -15.0137    0.0000 N   0  0  0  0  0  0  0  0  0  0  0  0
   13.1071  -14.5959    0.0000 C   0  0  0  0  0  0  0  0  0  0  0  0
   12.8520  -12.4786    0.0000 C   0  0  0  0  0  0  0  0  0  0  0  0
   10.8214  -11.9664    0.0000 N   0  0  0  0  0  0  0  0  0  0  0  0
   10.6392   -9.9227    0.0000 C   0  0  0  0  0  0  0  0  0  0  0  0
   12.5184   -9.0272    0.0000 C   0  0  0  0  0  0  0  0  0  0  0  0
   11.0323   -5.2791    0.0000 C   0  0  0  0  0  0  0  0  0  0  0  0
    8.9415   -5.5661    0.0000 C   0  0  0  0  0  0  0  0  0  0  0  0
   18.7787   -4.9602    0.0000 C   0  0  0  0  0  0  0  0  0  0  0  0
   20.8845   -5.0996    0.0000 C   0  0  0  0  0  0  0  0  0  0  0  0
   21.4756  -12.3490    0.0000 C   0  0  0  0  0  0  0  0  0  0  0  0
   21.9794  -14.3984    0.0000 C   0  0  0  0  0  0  0  0  0  0  0  0
   15.2453  -17.1235    0.0000 C   0  0  0  0  0  0  0  0  0  0  0  0
   17.0991  -18.1322    0.0000 C   0  0  0  0  0  0  0  0  0  0  0  0
    8.8274  -12.6574    0.0000 C   0  0  0  0  0  0  0  0  0  0  0  0
    7.2320  -11.2760    0.0000 C   0  0  0  0  0  0  0  0  0  0  0  0
   22.0580   -3.3456    0.0000 O   0  0  0  0  0  0  0  0  0  0  0  0
   21.8167   -6.9929    0.0000 O   0  0  0  0  0  0  0  0  0  0  0  0
   24.0060  -14.9868    0.0000 O   0  0  0  0  0  0  0  0  0  0  0  0
   20.4565  -15.8593    0.0000 O   0  0  0  0  0  0  0  0  0  0  0  0
   18.8995  -17.0312    0.0000 O   0  0  0  0  0  0  0  0  0  0  0  0
   17.1523  -20.2419    0.0000 O   0  0  0  0  0  0  0  0  0  0  0  0
    7.6306   -9.2036    0.0000 O   0  0  0  0  0  0  0  0  0  0  0  0
    5.2379  -11.9669    0.0000 O   0  0  0  0  0  0  0  0  0  0  0  0
    7.6476   -3.8989    0.0000 O   0  0  0  0  0  0  0  0  0  0  0  0
    8.1447   -7.5202    0.0000 O   0  0  0  0  0  0  0  0  0  0  0  0
  1  2  1  0
  2  3  1  0
  3  4  1  0
  4  5  1  0
  5  6  1  0
  6  7  1  0
  7  8  1  0
  8  9  1  0
  9 10  1  0
 10 11  1  0
 11 12  1  0
 12 13  1  0
 13 14  1  0
 14 15  1  0
 15  1  1  0
  1 16  1  0
 16 17  1  0
  4 18  1  0
 18 19  1  0
  7 20  1  0
 20 21  1  0
 10 22  1  0
 22 23  1  0
 13 24  1  0
 24 25  1  0
 19 26  1  0
 19 27  2  0
 21 28  1  0
 21 29  2  0
 23 30  1  0
 23 31  2  0
 25 32  1  0
 25 33  2  0
 17 34  1  0
 17 35  2  0
M  END
>  <Name>  (149) 
1&4&7&10&13-Pentaazacyclopentadecane-1&4&7&10&13-pentaethanoic

>  <logK_Lu_z=3.0_T=25_I=1.0>  (149) 
16.71

$$$$

     RDKit          2D

 14 13  0  0  0  0  0  0  0  0999 V2000
   14.7383   -9.4910    0.0000 N   0  0  0  0  0  0  0  0  0  0  0  0
   16.0604   -9.4950    0.0000 C   0  0  0  0  0  0  0  0  0  0  0  0
   16.7205  -10.6384    0.0000 C   0  0  0  0  0  0  0  0  0  0  0  0
   16.7258   -8.3436    0.0000 C   0  0  0  0  0  0  0  0  0  0  0  0
   16.0612   -7.1923    0.0000 C   0  0  0  0  0  0  0  0  0  0  0  0
   18.0559   -8.3429    0.0000 O   0  0  0  0  0  0  0  0  0  0  0  0
   16.0674  -11.7931    0.0000 C   0  0  0  0  0  0  0  0  0  0  0  0
   18.0505  -10.6380    0.0000 O   0  0  0  0  0  0  0  0  0  0  0  0
   14.0807  -10.6380    0.0000 C   0  0  0  0  0  0  0  0  0  0  0  0
   12.7552  -10.6462    0.0000 C   0  0  0  0  0  0  0  0  0  0  0  0
   14.7453  -11.7890    0.0000 C   0  0  0  0  0  0  0  0  0  0  0  0
   14.0799  -12.9406    0.0000 C   0  0  0  0  0  0  0  0  0  0  0  0
   12.0906   -9.4950    0.0000 C   0  0  0  0  0  0  0  0  0  0  0  0
   12.0852  -11.7901    0.0000 O   0  0  0  0  0  0  0  0  0  0  0  0
  1  2  1  0
  2  3  1  0
  2  4  1  0
  4  5  1  0
  4  6  2  0
  3  7  1  0
  3  8  2  0
  1  9  1  0
  9 10  1  0
  9 11  1  0
 11 12  1  0
 10 13  1  0
 10 14  2  0
M  END
>  <Name>  (150) 
1-carboxypropylaminomalonic

>  <logK_Lu_z=3.0_T=25_I=1.0>  (150) 
8.44

$$$$

     RDKit          2D

 22 23  0  0  0  0  0  0  0  0999 V2000
   11.6175   -9.8869    0.0000 C   0  0  0  0  0  0  0  0  0  0  0  0
   11.6175  -11.2169    0.0000 C   0  0  0  0  0  0  0  0  0  0  0  0
   10.4657   -9.2219    0.0000 C   0  0  0  0  0  0  0  0  0  0  0  0
   10.4657  -11.8819    0.0000 C   0  0  0  0  0  0  0  0  0  0  0  0
    9.3138   -9.8869    0.0000 C   0  0  0  0  0  0  0  0  0  0  0  0
    9.3138  -11.2169    0.0000 C   0  0  0  0  0  0  0  0  0  0  0  0
   13.9211   -9.8869    0.0000 C   0  0  0  0  0  0  0  0  0  0  0  0
   13.9211  -11.2169    0.0000 C   0  0  0  0  0  0  0  0  0  0  0  0
   12.7693   -9.2219    0.0000 C   0  0  0  0  0  0  0  0  0  0  0  0
   12.7693  -11.8819    0.0000 C   0  0  0  0  0  0  0  0  0  0  0  0
   15.0729   -9.2219    0.0000 C   0  0  0  0  0  0  0  0  0  0  0  0
   12.7693  -13.2119    0.0000 S   0  0  0  0  0  0  0  0  0  0  0  0
    8.1620   -9.2219    0.0000 S   0  0  0  0  0  0  0  0  0  0  0  0
   12.7693   -7.8919    0.0000 O   0  0  0  0  0  0  0  0  0  0  0  0
   15.0729   -7.8919    0.0000 O   0  0  0  0  0  0  0  0  0  0  0  0
   16.2247   -9.8869    0.0000 O   0  0  0  0  0  0  0  0  0  0  0  0
   14.0993  -13.2119    0.0000 O   0  0  0  0  0  0  0  0  0  0  0  0
   11.4393  -13.2119    0.0000 O   0  0  0  0  0  0  0  0  0  0  0  0
   12.7693  -14.5419    0.0000 O   0  0  0  0  0  0  0  0  0  0  0  0
    8.8270   -8.0701    0.0000 O   0  0  0  0  0  0  0  0  0  0  0  0
    7.4970  -10.3737    0.0000 O   0  0  0  0  0  0  0  0  0  0  0  0
    7.0102   -8.5569    0.0000 O   0  0  0  0  0  0  0  0  0  0  0  0
  3  1  2  0
  4  2  2  0
  5  3  1  0
  6  4  1  0
  6  5  2  0
  8  7  1  0
  9  7  2  0
 10  8  2  0
  1  9  1  0
  2 10  1  0
  2  1  1  0
  7 11  1  0
 10 12  1  0
  5 13  1  0
  9 14  1  0
 11 15  2  0
 11 16  1  0
 12 17  2  0
 12 18  2  0
 12 19  1  0
 13 20  2  0
 13 21  2  0
 13 22  1  0
M  END
>  <Name>  (151) 
1-Hydroxy-4&7-disulfo-2-naphthoic

>  <logK_Lu_z=3.0_T=25_I=1.0>  (151) 
8.8

$$$$

     RDKit          2D

 18 19  0  0  0  0  0  0  0  0999 V2000
   11.7646  -10.0151    0.0000 C   0  0  0  0  0  0  0  0  0  0  0  0
   11.7646  -11.3451    0.0000 C   0  0  0  0  0  0  0  0  0  0  0  0
   10.6127   -9.3501    0.0000 C   0  0  0  0  0  0  0  0  0  0  0  0
   10.6127  -12.0101    0.0000 C   0  0  0  0  0  0  0  0  0  0  0  0
    9.4609  -10.0151    0.0000 C   0  0  0  0  0  0  0  0  0  0  0  0
    9.4609  -11.3451    0.0000 C   0  0  0  0  0  0  0  0  0  0  0  0
   14.0682  -10.0151    0.0000 C   0  0  0  0  0  0  0  0  0  0  0  0
   14.0682  -11.3451    0.0000 C   0  0  0  0  0  0  0  0  0  0  0  0
   12.9164   -9.3501    0.0000 C   0  0  0  0  0  0  0  0  0  0  0  0
   12.9164  -12.0101    0.0000 C   0  0  0  0  0  0  0  0  0  0  0  0
   15.2200   -9.3501    0.0000 C   0  0  0  0  0  0  0  0  0  0  0  0
   12.9164  -13.3401    0.0000 S   0  0  0  0  0  0  0  0  0  0  0  0
   12.9164   -8.0201    0.0000 O   0  0  0  0  0  0  0  0  0  0  0  0
   15.2200   -8.0201    0.0000 O   0  0  0  0  0  0  0  0  0  0  0  0
   16.3718  -10.0151    0.0000 O   0  0  0  0  0  0  0  0  0  0  0  0
   14.2464  -13.3401    0.0000 O   0  0  0  0  0  0  0  0  0  0  0  0
   11.5864  -13.3401    0.0000 O   0  0  0  0  0  0  0  0  0  0  0  0
   12.9164  -14.6701    0.0000 O   0  0  0  0  0  0  0  0  0  0  0  0
  3  1  2  0
  4  2  2  0
  5  3  1  0
  6  4  1  0
  6  5  2  0
  8  7  1  0
  9  7  2  0
 10  8  2  0
  1  9  1  0
  2 10  1  0
  2  1  1  0
  7 11  1  0
 10 12  1  0
  9 13  1  0
 11 14  2  0
 11 15  1  0
 12 16  2  0
 12 17  2  0
 12 18  1  0
M  END
>  <Name>  (152) 
1-Hydroxy-4-sulfo-2-naphthoic

>  <logK_Lu_z=3.0_T=25_I=1.0>  (152) 
8.807

$$$$

     RDKit          2D

 17 18  0  0  0  0  0  0  0  0999 V2000
   13.0987   -8.3125    0.0000 C   0  0  0  0  0  0  0  0  0  0  0  0
   13.0987   -9.6425    0.0000 C   0  0  0  0  0  0  0  0  0  0  0  0
   11.9469   -7.6475    0.0000 C   0  0  0  0  0  0  0  0  0  0  0  0
   11.9469  -10.3074    0.0000 C   0  0  0  0  0  0  0  0  0  0  0  0
   10.7951   -8.3125    0.0000 C   0  0  0  0  0  0  0  0  0  0  0  0
   10.7951   -9.6425    0.0000 C   0  0  0  0  0  0  0  0  0  0  0  0
   14.2505   -7.6475    0.0000 C   0  0  0  0  0  0  0  0  0  0  0  0
   15.4023   -8.3125    0.0000 C   0  0  0  0  0  0  0  0  0  0  0  0
   14.2505  -10.3074    0.0000 C   0  0  0  0  0  0  0  0  0  0  0  0
   15.4023   -9.6425    0.0000 C   0  0  0  0  0  0  0  0  0  0  0  0
   14.2505   -6.3175    0.0000 N   0  0  0  0  0  0  0  0  0  0  0  0
    9.6434   -7.6475    0.0000 S   0  0  0  0  0  0  0  0  0  0  0  0
   10.3083   -6.4957    0.0000 O   0  0  0  0  0  0  0  0  0  0  0  0
    8.9784   -8.7993    0.0000 O   0  0  0  0  0  0  0  0  0  0  0  0
    8.4916   -6.9825    0.0000 O   0  0  0  0  0  0  0  0  0  0  0  0
   15.4023   -5.6526    0.0000 O   0  0  0  0  0  0  0  0  0  0  0  0
   16.5541   -7.6475    0.0000 O   0  0  0  0  0  0  0  0  0  0  0  0
  3  1  2  0
  4  2  2  0
  5  3  1  0
  6  4  1  0
  6  5  2  0
  7  1  1  0
  2  1  1  0
  8  7  2  0
  9  2  1  0
 10  8  1  0
 10  9  2  0
  7 11  1  0
  5 12  1  0
 12 13  2  0
 12 14  2  0
 12 15  1  0
 11 16  2  0
  8 17  1  0
M  END
>  <Name>  (153) 
1-Nitroso-2-naphthol-7-sulfonic

>  <logK_Lu_z=3.0_T=25_I=1.0>  (153) 
4.33

$$$$

     RDKit          2D

 28 28  0  0  0  0  0  0  0  0999 V2000
   10.7557   -9.4084    0.0000 N   0  0  0  0  0  0  0  0  0  0  0  0
   12.4563  -10.3902    0.0000 C   0  0  0  0  0  0  0  0  0  0  0  0
   14.1614   -9.4074    0.0000 C   0  0  0  0  0  0  0  0  0  0  0  0
   15.8620  -10.3892    0.0000 N   0  0  0  0  0  0  0  0  0  0  0  0
   15.8456  -12.3470    0.0000 C   0  0  0  0  0  0  0  0  0  0  0  0
   14.1754  -13.3104    0.0000 C   0  0  0  0  0  0  0  0  0  0  0  0
   14.1591  -15.2682    0.0000 N   0  0  0  0  0  0  0  0  0  0  0  0
   12.4752  -16.2553    0.0000 C   0  0  0  0  0  0  0  0  0  0  0  0
   10.7746  -15.2735    0.0000 C   0  0  0  0  0  0  0  0  0  0  0  0
   10.7698  -13.3114    0.0000 N   0  0  0  0  0  0  0  0  0  0  0  0
    9.0692  -12.3296    0.0000 C   0  0  0  0  0  0  0  0  0  0  0  0
    9.0856  -10.3718    0.0000 C   0  0  0  0  0  0  0  0  0  0  0  0
    9.7701   -7.7194    0.0000 C   0  0  0  0  0  0  0  0  0  0  0  0
    7.8145   -7.7286    0.0000 C   0  0  0  0  0  0  0  0  0  0  0  0
    6.8289   -6.0397    0.0000 C   0  0  0  0  0  0  0  0  0  0  0  0
   17.5580   -9.4158    0.0000 C   0  0  0  0  0  0  0  0  0  0  0  0
   17.5629   -7.4603    0.0000 C   0  0  0  0  0  0  0  0  0  0  0  0
   15.1376  -16.9613    0.0000 C   0  0  0  0  0  0  0  0  0  0  0  0
   17.0931  -16.9604    0.0000 C   0  0  0  0  0  0  0  0  0  0  0  0
    9.0735  -14.2844    0.0000 C   0  0  0  0  0  0  0  0  0  0  0  0
    7.3827  -13.3018    0.0000 C   0  0  0  0  0  0  0  0  0  0  0  0
    4.8733   -6.0488    0.0000 O   0  0  0  0  0  0  0  0  0  0  0  0
   15.8719   -6.4782    0.0000 O   0  0  0  0  0  0  0  0  0  0  0  0
   19.2590   -6.4868    0.0000 O   0  0  0  0  0  0  0  0  0  0  0  0
   18.0701  -15.2664    0.0000 O   0  0  0  0  0  0  0  0  0  0  0  0
   18.0717  -18.6535    0.0000 O   0  0  0  0  0  0  0  0  0  0  0  0
    7.3882  -11.3463    0.0000 O   0  0  0  0  0  0  0  0  0  0  0  0
    5.6864  -14.2749    0.0000 O   0  0  0  0  0  0  0  0  0  0  0  0
  1  2  1  0
  2  3  1  0
  3  4  1  0
  4  5  1  0
  5  6  1  0
  6  7  1  0
  7  8  1  0
  8  9  1  0
  9 10  1  0
 10 11  1  0
 11 12  1  0
 12  1  1  0
  1 13  1  0
 13 14  1  0
 14 15  1  0
  4 16  1  0
 16 17  1  0
  7 18  1  0
 18 19  1  0
 10 20  1  0
 20 21  1  0
 15 22  1  0
 17 23  2  0
 17 24  1  0
 19 25  2  0
 19 26  1  0
 21 27  2  0
 21 28  1  0
M  END
>  <Name>  (154) 
10-Hydroxypropyl-1&4&7&10-tetraazacyclododecane-1&4&7-triethanoic

>  <logK_Lu_z=3.0_T=25_I=1.0>  (154) 
23.3

$$$$

     RDKit          2D

 15 15  0  0  0  0  0  0  0  0999 V2000
    9.6027   -8.2056    0.0000 O   0  0  0  0  0  0  0  0  0  0  0  0
   10.8554   -6.4349    0.0000 C   0  0  0  0  0  0  0  0  0  0  0  0
   12.9181   -7.0094    0.0000 C   0  0  0  0  0  0  0  0  0  0  0  0
   14.2274   -5.2575    0.0000 O   0  0  0  0  0  0  0  0  0  0  0  0
   16.3938   -5.9356    0.0000 C   0  0  0  0  0  0  0  0  0  0  0  0
   16.3938   -8.1491    0.0000 C   0  0  0  0  0  0  0  0  0  0  0  0
   18.5036   -8.8367    0.0000 O   0  0  0  0  0  0  0  0  0  0  0  0
   18.5036  -11.0502    0.0000 C   0  0  0  0  0  0  0  0  0  0  0  0
   16.4126  -11.8037    0.0000 C   0  0  0  0  0  0  0  0  0  0  0  0
   16.3655  -13.9701    0.0000 O   0  0  0  0  0  0  0  0  0  0  0  0
   14.2745  -14.6765    0.0000 C   0  0  0  0  0  0  0  0  0  0  0  0
   12.9464  -12.9057    0.0000 C   0  0  0  0  0  0  0  0  0  0  0  0
   10.8554  -13.4991    0.0000 O   0  0  0  0  0  0  0  0  0  0  0  0
    9.6309  -11.7566    0.0000 C   0  0  0  0  0  0  0  0  0  0  0  0
   10.8554   -9.9764    0.0000 C   0  0  0  0  0  0  0  0  0  0  0  0
  1  2  1  0
  2  3  1  0
  3  4  1  0
  4  5  1  0
  5  6  1  0
  6  7  1  0
  7  8  1  0
  8  9  1  0
  9 10  1  0
 10 11  1  0
 11 12  1  0
 12 13  1  0
 13 14  1  0
 14 15  1  0
 15  1  1  0
M  END
>  <Name>  (155) 
15C5-1

>  <logK_Lu_z=3.0_T=25_I=1.0>  (155) 
7.5

$$$$

     RDKit          2D

 25 26  0  0  0  0  0  0  0  0999 V2000
   16.2044  -12.2283    0.0000 C   0  0  0  0  0  0  0  0  0  0  0  0
   16.8694  -13.3801    0.0000 C   0  0  0  0  0  0  0  0  0  0  0  0
   14.8744  -12.2283    0.0000 C   0  0  0  0  0  0  0  0  0  0  0  0
   16.2044  -14.5319    0.0000 C   0  0  0  0  0  0  0  0  0  0  0  0
   14.2094  -13.3801    0.0000 C   0  0  0  0  0  0  0  0  0  0  0  0
   14.8744  -14.5319    0.0000 C   0  0  0  0  0  0  0  0  0  0  0  0
   12.2144  -12.2283    0.0000 N   0  0  0  0  0  0  0  0  0  0  0  0
   12.8794  -13.3801    0.0000 N   0  0  0  0  0  0  0  0  0  0  0  0
   16.8694  -11.0765    0.0000 N   0  0  0  0  0  0  0  0  0  0  0  0
   10.8844  -12.2283    0.0000 C   0  0  0  0  0  0  0  0  0  0  0  0
   10.2194  -13.3801    0.0000 C   0  0  0  0  0  0  0  0  0  0  0  0
   10.2194  -11.0765    0.0000 C   0  0  0  0  0  0  0  0  0  0  0  0
    8.8894  -13.3801    0.0000 C   0  0  0  0  0  0  0  0  0  0  0  0
    8.8894  -11.0765    0.0000 C   0  0  0  0  0  0  0  0  0  0  0  0
    8.2244  -12.2283    0.0000 C   0  0  0  0  0  0  0  0  0  0  0  0
   16.8694  -15.6838    0.0000 S   0  0  0  0  0  0  0  0  0  0  0  0
   10.8844  -14.5319    0.0000 O   0  0  0  0  0  0  0  0  0  0  0  0
    8.2244  -14.5319    0.0000 O   0  0  0  0  0  0  0  0  0  0  0  0
    6.8944  -12.2283    0.0000 O   0  0  0  0  0  0  0  0  0  0  0  0
   14.2094  -15.6838    0.0000 O   0  0  0  0  0  0  0  0  0  0  0  0
   18.0212  -15.0188    0.0000 O   0  0  0  0  0  0  0  0  0  0  0  0
   15.7176  -16.3488    0.0000 O   0  0  0  0  0  0  0  0  0  0  0  0
   17.5344  -16.8356    0.0000 O   0  0  0  0  0  0  0  0  0  0  0  0
   18.1994  -11.0765    0.0000 O   0  0  0  0  0  0  0  0  0  0  0  0
   16.2044   -9.9247    0.0000 O   0  0  0  0  0  0  0  0  0  0  0  0
  2  1  2  0
  3  1  1  0
  4  2  1  0
  5  3  2  0
  6  4  2  0
  6  5  1  0
  7  8  2  0
  5  8  1  0
  1  9  1  0
 11 10  2  0
 12 10  1  0
 13 11  1  0
 14 12  2  0
 15 13  2  0
 15 14  1  0
  7 10  1  0
  4 16  1  0
 11 17  1  0
 13 18  1  0
 15 19  1  0
  6 20  1  0
 16 21  2  0
 16 22  2  0
 16 23  1  0
  9 24  2  0
  9 25  1  0
M  CHG  2   9   1  25  -1
M  END
>  <Name>  (156) 
2&2'&3&4-tetrahydroxy-3'-sulfo-5'-nitroazobenzene

>  <logK_Lu_z=3.0_T=25_I=1.0>  (156) 
4.65

$$$$

     RDKit          2D

 23 22  0  0  0  0  0  0  0  0999 V2000
   13.8170  -13.6117    0.0000 N   0  0  0  0  0  0  0  0  0  0  0  0
   15.5555  -12.1355    0.0000 C   0  0  0  0  0  0  0  0  0  0  0  0
   17.6795  -12.9040    0.0000 C   0  0  0  0  0  0  0  0  0  0  0  0
   19.4259  -11.4413    0.0000 N   0  0  0  0  0  0  0  0  0  0  0  0
   19.0134   -9.2112    0.0000 C   0  0  0  0  0  0  0  0  0  0  0  0
   20.7593   -7.7478    0.0000 C   0  0  0  0  0  0  0  0  0  0  0  0
   21.5499  -12.2097    0.0000 C   0  0  0  0  0  0  0  0  0  0  0  0
   21.9626  -14.4402    0.0000 C   0  0  0  0  0  0  0  0  0  0  0  0
   14.6029  -15.7308    0.0000 C   0  0  0  0  0  0  0  0  0  0  0  0
   16.8405  -16.1192    0.0000 C   0  0  0  0  0  0  0  0  0  0  0  0
   11.6850  -12.8293    0.0000 C   0  0  0  0  0  0  0  0  0  0  0  0
    9.9466  -14.3059    0.0000 C   0  0  0  0  0  0  0  0  0  0  0  0
   18.2841  -14.3758    0.0000 O   0  0  0  0  0  0  0  0  0  0  0  0
   17.6211  -18.2593    0.0000 O   0  0  0  0  0  0  0  0  0  0  0  0
   10.3456  -16.5438    0.0000 O   0  0  0  0  0  0  0  0  0  0  0  0
    7.8011  -13.5314    0.0000 O   0  0  0  0  0  0  0  0  0  0  0  0
   22.8972   -8.5092    0.0000 O   0  0  0  0  0  0  0  0  0  0  0  0
   20.3527   -5.4968    0.0000 O   0  0  0  0  0  0  0  0  0  0  0  0
   20.2165  -15.9033    0.0000 O   0  0  0  0  0  0  0  0  0  0  0  0
   24.0868  -15.2091    0.0000 O   0  0  0  0  0  0  0  0  0  0  0  0
   15.1428   -9.9051    0.0000 C   0  0  0  0  0  0  0  0  0  0  0  0
   16.8889   -8.4420    0.0000 O   0  0  0  0  0  0  0  0  0  0  0  0
   13.0186   -9.1362    0.0000 O   0  0  0  0  0  0  0  0  0  0  0  0
  1  2  1  0
  2  3  1  0
  3  4  1  0
  4  5  1  0
  5  6  1  0
  4  7  1  0
  7  8  1  0
  1  9  1  0
  9 10  1  0
  1 11  1  0
 11 12  1  0
 10 13  1  0
 10 14  2  0
 12 15  2  0
 12 16  1  0
  6 17  2  0
  6 18  1  0
  8 19  1  0
  8 20  2  0
  2 21  1  0
 21 22  1  0
 21 23  2  0
M  END
>  <Name>  (157) 
2&3-Diaminopropanoic-N&N&N'&N'-tetraacetic

>  <logK_Lu_z=3.0_T=25_I=1.0>  (157) 
16.6

$$$$

     RDKit          2D

 21 20  0  0  0  0  0  0  0  0999 V2000
   13.4898   -9.1030    0.0000 N   0  0  0  0  0  0  0  0  0  0  0  0
   15.3755  -10.2080    0.0000 C   0  0  0  0  0  0  0  0  0  0  0  0
   17.2740   -9.1119    0.0000 C   0  0  0  0  0  0  0  0  0  0  0  0
   19.1580  -10.1835    0.0000 N   0  0  0  0  0  0  0  0  0  0  0  0
   17.2731   -6.9187    0.0000 C   0  0  0  0  0  0  0  0  0  0  0  0
   11.5913  -10.1991    0.0000 C   0  0  0  0  0  0  0  0  0  0  0  0
   11.5922  -12.3923    0.0000 C   0  0  0  0  0  0  0  0  0  0  0  0
    9.6926   -9.1020    0.0000 C   0  0  0  0  0  0  0  0  0  0  0  0
   19.1589  -12.3767    0.0000 C   0  0  0  0  0  0  0  0  0  0  0  0
   17.2604  -13.4728    0.0000 C   0  0  0  0  0  0  0  0  0  0  0  0
   21.0577  -13.4738    0.0000 C   0  0  0  0  0  0  0  0  0  0  0  0
   15.3747  -12.3678    0.0000 O   0  0  0  0  0  0  0  0  0  0  0  0
   17.2744  -15.6580    0.0000 O   0  0  0  0  0  0  0  0  0  0  0  0
   21.0584  -15.6667    0.0000 O   0  0  0  0  0  0  0  0  0  0  0  0
   22.9558  -12.3779    0.0000 O   0  0  0  0  0  0  0  0  0  0  0  0
   19.1712   -5.8228    0.0000 O   0  0  0  0  0  0  0  0  0  0  0  0
   15.3743   -5.8217    0.0000 O   0  0  0  0  0  0  0  0  0  0  0  0
   13.4763  -13.4638    0.0000 O   0  0  0  0  0  0  0  0  0  0  0  0
    9.6941  -13.4882    0.0000 O   0  0  0  0  0  0  0  0  0  0  0  0
    9.6919   -6.9091    0.0000 O   0  0  0  0  0  0  0  0  0  0  0  0
    7.7944  -10.1979    0.0000 O   0  0  0  0  0  0  0  0  0  0  0  0
  1  2  1  0
  2  3  1  0
  3  4  1  0
  3  5  1  0
  1  6  1  0
  6  7  1  0
  6  8  1  0
  4  9  1  0
  9 10  1  0
  9 11  1  0
 10 12  1  0
 10 13  2  0
 11 14  1  0
 11 15  2  0
  5 16  2  0
  5 17  1  0
  7 18  2  0
  7 19  1  0
  8 20  2  0
  8 21  1  0
M  END
>  <Name>  (158) 
2&3-Diaminopropanoic-N&N'-dimalonic

>  <logK_Lu_z=3.0_T=25_I=1.0>  (158) 
12.76

$$$$

     RDKit          2D

 10  9  0  0  0  0  0  0  0  0999 V2000
   10.2921  -11.0217    0.0000 C   0  0  0  0  0  0  0  0  0  0  0  0
   10.2921   -8.6112    0.0000 C   0  0  0  0  0  0  0  0  0  0  0  0
    7.8816   -8.6112    0.0000 C   0  0  0  0  0  0  0  0  0  0  0  0
   12.7025   -8.6112    0.0000 C   0  0  0  0  0  0  0  0  0  0  0  0
   12.7025   -6.2008    0.0000 C   0  0  0  0  0  0  0  0  0  0  0  0
   12.7025  -11.0217    0.0000 C   0  0  0  0  0  0  0  0  0  0  0  0
   15.1130   -8.6112    0.0000 O   0  0  0  0  0  0  0  0  0  0  0  0
   10.2921   -6.2008    0.0000 O   0  0  0  0  0  0  0  0  0  0  0  0
    8.2046  -12.2269    0.0000 O   0  0  0  0  0  0  0  0  0  0  0  0
   12.3796  -12.2269    0.0000 O   0  0  0  0  0  0  0  0  0  0  0  0
  1  2  1  0
  2  3  1  0
  2  4  1  0
  4  5  1  0
  4  6  1  0
  4  7  1  0
  2  8  1  0
  1  9  2  0
  1 10  1  0
M  END
>  <Name>  (159) 
2&3-Dihydroxy-2&3-dimethylbutanoic

>  <logK_Lu_z=3.0_T=25_I=1.0>  (159) 
3.58

$$$$

     RDKit          2D

  8  7  0  0  0  0  0  0  0  0999 V2000
   10.4986  -10.4474    0.0000 C   0  0  0  0  0  0  0  0  0  0  0  0
   10.4986   -8.4715    0.0000 C   0  0  0  0  0  0  0  0  0  0  0  0
    8.5226   -8.4715    0.0000 C   0  0  0  0  0  0  0  0  0  0  0  0
   12.4745   -8.4715    0.0000 C   0  0  0  0  0  0  0  0  0  0  0  0
   13.4624   -6.7603    0.0000 O   0  0  0  0  0  0  0  0  0  0  0  0
   13.4624  -10.1827    0.0000 O   0  0  0  0  0  0  0  0  0  0  0  0
   10.4986   -6.4956    0.0000 O   0  0  0  0  0  0  0  0  0  0  0  0
    8.7874  -11.4354    0.0000 O   0  0  0  0  0  0  0  0  0  0  0  0
  1  2  1  0
  2  3  1  0
  2  4  1  0
  4  5  2  0
  4  6  1  0
  2  7  1  0
  1  8  1  0
M  END
>  <Name>  (160) 
2&3-Dihydroxy-2-methylpropanoic

>  <logK_Lu_z=3.0_T=25_I=1.0>  (160) 
3.3

$$$$

     RDKit          2D

 32 36  0  0  1  0  0  0  0  0999 V2000
   14.4476   -7.5803    0.0000 C   0  0  0  0  0  0  0  0  0  0  0  0
   14.4518   -8.9029    0.0000 C   0  0  0  0  0  0  0  0  0  0  0  0
   13.3046   -6.9203    0.0000 C   0  0  0  0  0  0  0  0  0  0  0  0
   13.3047   -9.5599    0.0000 N   0  0  0  0  0  0  0  0  0  0  0  0
   12.1574   -7.5782    0.0000 C   0  0  0  0  0  0  0  0  0  0  0  0
   12.1616   -8.8999    0.0000 C   0  0  0  0  0  0  0  0  0  0  0  0
   15.6028   -9.5674    0.0000 C   0  0  0  0  0  0  0  0  0  0  0  0
   16.8144   -9.0285    0.0000 N   0  0  0  0  0  0  0  0  0  0  0  0
   15.7423  -10.8855    0.0000 N   0  0  0  0  0  0  0  0  0  0  0  0
   17.7007  -10.0108    0.0000 C   0  0  0  0  0  0  0  0  0  0  0  0
   17.0359  -11.1622    0.0000 C   0  0  0  0  0  0  0  0  0  0  0  0
   11.0101   -9.5654    0.0000 C   0  0  0  0  0  0  0  0  0  0  0  0
   10.8711  -10.8871    0.0000 N   0  0  0  0  0  0  0  0  0  0  0  0
    9.7878   -9.0236    0.0000 N   0  0  0  0  0  0  0  0  0  0  0  0
    9.5639  -11.1660    0.0000 C   0  0  0  0  0  0  0  0  0  0  0  0
    8.8986  -10.0142    0.0000 C   0  0  0  0  0  0  0  0  0  0  0  0
   19.0306  -10.0114    0.0000 C   0  0  0  0  0  0  0  0  0  0  0  0
   19.6961  -11.1629    0.0000 C   0  0  0  0  0  0  0  0  0  0  0  0
   17.7060  -12.3058    0.0000 C   0  0  0  0  0  0  0  0  0  0  0  0
   19.0314  -12.3142    0.0000 C   0  0  0  0  0  0  0  0  0  0  0  0
    8.8993  -12.3170    0.0000 C   0  0  0  0  0  0  0  0  0  0  0  0
    7.5692  -12.3168    0.0000 C   0  0  0  0  0  0  0  0  0  0  0  0
    7.5684  -10.0140    0.0000 C   0  0  0  0  0  0  0  0  0  0  0  0
    6.9039  -11.1649    0.0000 C   0  0  0  0  0  0  0  0  0  0  0  0
    9.5168   -7.7210    0.0000 C   0  0  0  0  0  0  0  0  0  0  0  0
   17.0874   -7.7230    0.0000 C   0  0  0  0  0  0  0  0  0  0  0  0
   16.1041   -6.8380    0.0000 C   0  0  0  0  0  0  0  0  0  0  0  0
   10.4943   -6.8430    0.0000 C   0  0  0  0  0  0  0  0  0  0  0  0
    8.2467   -7.3152    0.0000 C   0  0  0  0  0  0  0  0  0  0  0  0
    7.9708   -6.0202    0.0000 C   0  0  0  0  0  0  0  0  0  0  0  0
   18.3545   -7.3186    0.0000 C   0  0  0  0  0  0  0  0  0  0  0  0
   18.6273   -6.0126    0.0000 C   0  0  0  0  0  0  0  0  0  0  0  0
  2  1  2  0
  3  1  1  0
  4  2  1  0
  5  3  2  0
  6  4  2  0
  6  5  1  0
  8  7  1  0
  9  7  2  0
 10  8  1  0
 11  9  1  0
  2  7  1  0
 13 12  2  0
 14 12  1  0
 15 13  1  0
 16 14  1  0
  6 12  1  0
 17 10  2  0
 11 10  1  0
 18 17  1  0
 19 11  2  0
 20 18  2  0
 20 19  1  0
 21 15  2  0
 16 15  1  0
 22 21  1  0
 23 16  2  0
 24 22  2  0
 24 23  1  0
 14 25  1  0
  8 26  1  0
 26 27  1  6
 25 28  1  6
 25 29  1  0
 29 30  1  0
 26 31  1  0
 31 32  1  0
M  END
>  <Name>  (161) 
2&6-bis(1-S-neopentylbenzimidazol-2-yl)pyridine

>  <logK_Lu_z=3.0_T=25_I=1.0>  (161) 
6.9

$$$$

     RDKit          2D

 36 38  0  0  0  0  0  0  0  0999 V2000
   16.3469  -13.0840    0.0000 C   0  0  0  0  0  0  0  0  0  0  0  0
   16.3469  -14.4140    0.0000 C   0  0  0  0  0  0  0  0  0  0  0  0
   15.1951  -12.4190    0.0000 N   0  0  0  0  0  0  0  0  0  0  0  0
   15.1951  -15.0790    0.0000 C   0  0  0  0  0  0  0  0  0  0  0  0
   14.0433  -13.0840    0.0000 C   0  0  0  0  0  0  0  0  0  0  0  0
   14.0433  -14.4140    0.0000 C   0  0  0  0  0  0  0  0  0  0  0  0
   17.4987  -12.4190    0.0000 N   0  0  0  0  0  0  0  0  0  0  0  0
   17.6377  -11.0963    0.0000 N   0  0  0  0  0  0  0  0  0  0  0  0
   18.7137  -12.9600    0.0000 C   0  0  0  0  0  0  0  0  0  0  0  0
   18.9387  -10.8198    0.0000 C   0  0  0  0  0  0  0  0  0  0  0  0
   19.6037  -11.9716    0.0000 C   0  0  0  0  0  0  0  0  0  0  0  0
   12.8914  -12.4190    0.0000 N   0  0  0  0  0  0  0  0  0  0  0  0
   11.6764  -12.9600    0.0000 C   0  0  0  0  0  0  0  0  0  0  0  0
   12.7524  -11.0963    0.0000 N   0  0  0  0  0  0  0  0  0  0  0  0
   10.7865  -11.9716    0.0000 C   0  0  0  0  0  0  0  0  0  0  0  0
   11.4515  -10.8198    0.0000 C   0  0  0  0  0  0  0  0  0  0  0  0
   19.4796   -9.6048    0.0000 C   0  0  0  0  0  0  0  0  0  0  0  0
   20.8023   -9.4657    0.0000 N   0  0  0  0  0  0  0  0  0  0  0  0
   21.3433   -8.2507    0.0000 C   0  0  0  0  0  0  0  0  0  0  0  0
   21.5841  -10.5417    0.0000 C   0  0  0  0  0  0  0  0  0  0  0  0
   20.5615   -7.1747    0.0000 C   0  0  0  0  0  0  0  0  0  0  0  0
   21.1025   -5.9597    0.0000 C   0  0  0  0  0  0  0  0  0  0  0  0
   19.2388   -7.3137    0.0000 O   0  0  0  0  0  0  0  0  0  0  0  0
   22.9068  -10.4027    0.0000 C   0  0  0  0  0  0  0  0  0  0  0  0
   23.6886  -11.4787    0.0000 C   0  0  0  0  0  0  0  0  0  0  0  0
   23.4478   -9.1877    0.0000 O   0  0  0  0  0  0  0  0  0  0  0  0
   10.9105   -9.6048    0.0000 C   0  0  0  0  0  0  0  0  0  0  0  0
    9.5878   -9.4657    0.0000 N   0  0  0  0  0  0  0  0  0  0  0  0
    9.0468   -8.2507    0.0000 C   0  0  0  0  0  0  0  0  0  0  0  0
    8.8061  -10.5417    0.0000 C   0  0  0  0  0  0  0  0  0  0  0  0
    9.8286   -7.1747    0.0000 C   0  0  0  0  0  0  0  0  0  0  0  0
    9.2876   -5.9597    0.0000 C   0  0  0  0  0  0  0  0  0  0  0  0
   11.1513   -7.3137    0.0000 O   0  0  0  0  0  0  0  0  0  0  0  0
    7.4833  -10.4027    0.0000 C   0  0  0  0  0  0  0  0  0  0  0  0
    6.7016  -11.4787    0.0000 C   0  0  0  0  0  0  0  0  0  0  0  0
    6.9424   -9.1877    0.0000 O   0  0  0  0  0  0  0  0  0  0  0  0
  2  1  2  0
  3  1  1  0
  4  2  1  0
  5  3  2  0
  6  4  2  0
  6  5  1  0
  8  7  1  0
  9  7  1  0
 10  8  2  0
 11  9  2  0
 11 10  1  0
  1  7  1  0
 13 12  1  0
 14 12  1  0
 15 13  2  0
 16 14  2  0
 16 15  1  0
  5 12  1  0
 10 17  1  0
 17 18  1  0
 18 19  1  0
 18 20  1  0
 19 21  1  0
 21 22  1  0
 21 23  2  0
 20 24  1  0
 24 25  1  0
 24 26  2  0
 16 27  1  0
 27 28  1  0
 28 29  1  0
 28 30  1  0
 29 31  1  0
 31 32  1  0
 31 33  2  0
 30 34  1  0
 34 35  1  0
 34 36  2  0
M  END
>  <Name>  (162) 
2&6-bis{3-[N&N-bis(carboxymethyl)aminomethyl]pyrazol-1-yl}-pyridine

>  <logK_Lu_z=3.0_T=25_I=1.0>  (162) 
15.42

$$$$

     RDKit          2D

 16 16  0  0  0  0  0  0  0  0999 V2000
   13.2786   -9.8318    0.0000 C   0  0  0  0  0  0  0  0  0  0  0  0
   12.6082  -10.9779    0.0000 C   0  0  0  0  0  0  0  0  0  0  0  0
   12.6000   -8.6563    0.0000 C   0  0  0  0  0  0  0  0  0  0  0  0
   11.2875  -10.9960    0.0000 C   0  0  0  0  0  0  0  0  0  0  0  0
   11.2222   -8.6875    0.0000 N   0  0  0  0  0  0  0  0  0  0  0  0
   10.5679   -9.8580    0.0000 C   0  0  0  0  0  0  0  0  0  0  0  0
   13.2811   -7.5139    0.0000 C   0  0  0  0  0  0  0  0  0  0  0  0
    9.2775  -10.1805    0.0000 C   0  0  0  0  0  0  0  0  0  0  0  0
   10.5422   -7.5798    0.0000 C   0  0  0  0  0  0  0  0  0  0  0  0
    9.3239   -7.1815    0.0000 C   0  0  0  0  0  0  0  0  0  0  0  0
   14.6227   -7.5427    0.0000 O   0  0  0  0  0  0  0  0  0  0  0  0
   12.6683   -6.3242    0.0000 O   0  0  0  0  0  0  0  0  0  0  0  0
    9.0292  -11.5296    0.0000 O   0  0  0  0  0  0  0  0  0  0  0  0
    8.1456   -9.5210    0.0000 O   0  0  0  0  0  0  0  0  0  0  0  0
    9.2944   -5.7964    0.0000 O   0  0  0  0  0  0  0  0  0  0  0  0
    8.0674   -7.5970    0.0000 O   0  0  0  0  0  0  0  0  0  0  0  0
  2  1  1  0
  3  1  1  0
  4  2  1  0
  5  3  1  0
  6  4  1  0
  6  5  1  0
  3  7  1  0
  6  8  1  0
  5  9  1  0
  9 10  1  0
  7 11  2  0
  7 12  1  0
  8 13  2  0
  8 14  1  0
 10 15  2  0
 10 16  1  0
M  END
>  <Name>  (163) 
2&6-Dicarboxypiperidyl-N-ethanoic

>  <logK_Lu_z=3.0_T=25_I=1.0>  (163) 
11.74

$$$$

     RDKit          2D

 10  9  0  0  0  0  0  0  0  0999 V2000
   12.7960  -10.1904    0.0000 C   0  0  0  0  0  0  0  0  0  0  0  0
   14.1409  -10.1904    0.0000 C   0  0  0  0  0  0  0  0  0  0  0  0
   12.0216   -9.1194    0.0000 C   0  0  0  0  0  0  0  0  0  0  0  0
   12.0737  -11.3000    0.0000 C   0  0  0  0  0  0  0  0  0  0  0  0
   14.0087   -8.8960    0.0000 C   0  0  0  0  0  0  0  0  0  0  0  0
   14.8369   -7.9288    0.0000 C   0  0  0  0  0  0  0  0  0  0  0  0
   15.4701  -10.2727    0.0000 C   0  0  0  0  0  0  0  0  0  0  0  0
   14.0815  -11.5278    0.0000 O   0  0  0  0  0  0  0  0  0  0  0  0
   16.1061  -11.4408    0.0000 O   0  0  0  0  0  0  0  0  0  0  0  0
   16.3275   -9.2779    0.0000 O   0  0  0  0  0  0  0  0  0  0  0  0
  1  2  1  0
  1  3  1  0
  1  4  1  0
  2  5  1  0
  5  6  1  0
  2  7  1  0
  2  8  1  0
  7  9  2  0
  7 10  1  0
M  END
>  <Name>  (164) 
2-Ethyl-2-hydroxy-3-methylbutanoic

>  <logK_Lu_z=3.0_T=25_I=1.0>  (164) 
3.03

$$$$

     RDKit          2D

 19 18  0  0  0  0  0  0  0  0999 V2000
   15.6797  -10.1296    0.0000 N   0  0  0  0  0  0  0  0  0  0  0  0
   16.3447   -8.9778    0.0000 C   0  0  0  0  0  0  0  0  0  0  0  0
   17.6747   -8.9778    0.0000 C   0  0  0  0  0  0  0  0  0  0  0  0
   18.3397   -7.8260    0.0000 C   0  0  0  0  0  0  0  0  0  0  0  0
   18.3397  -10.1296    0.0000 O   0  0  0  0  0  0  0  0  0  0  0  0
   16.3447  -11.2815    0.0000 C   0  0  0  0  0  0  0  0  0  0  0  0
   15.6797  -12.4333    0.0000 C   0  0  0  0  0  0  0  0  0  0  0  0
   16.3447  -13.5851    0.0000 C   0  0  0  0  0  0  0  0  0  0  0  0
   14.3497  -12.4333    0.0000 O   0  0  0  0  0  0  0  0  0  0  0  0
   14.3497  -10.1296    0.0000 C   0  0  0  0  0  0  0  0  0  0  0  0
   13.6847   -8.9778    0.0000 C   0  0  0  0  0  0  0  0  0  0  0  0
   13.6847  -11.2815    0.0000 C   0  0  0  0  0  0  0  0  0  0  0  0
   14.3497   -7.8260    0.0000 O   0  0  0  0  0  0  0  0  0  0  0  0
   12.3547   -8.9778    0.0000 C   0  0  0  0  0  0  0  0  0  0  0  0
   12.3547  -11.2815    0.0000 C   0  0  0  0  0  0  0  0  0  0  0  0
   11.6897  -12.4333    0.0000 C   0  0  0  0  0  0  0  0  0  0  0  0
   10.3597  -12.4333    0.0000 C   0  0  0  0  0  0  0  0  0  0  0  0
    9.6947  -13.5851    0.0000 C   0  0  0  0  0  0  0  0  0  0  0  0
    8.3647  -13.5851    0.0000 C   0  0  0  0  0  0  0  0  0  0  0  0
  1  2  1  0
  2  3  1  0
  3  4  1  0
  3  5  2  0
  1  6  1  0
  6  7  1  0
  7  8  1  0
  7  9  2  0
  1 10  1  0
 10 11  1  0
 10 12  1  0
 11 13  2  0
 11 14  1  0
 12 15  1  0
 15 16  1  0
 16 17  1  0
 17 18  1  0
 18 19  1  0
M  END
>  <Name>  (165) 
2-Hexylnitrilotriacetic

>  <logK_Lu_z=3.0_T=25_I=1.0>  (165) 
12.17

$$$$

     RDKit          2D

  8  7  0  0  0  0  0  0  0  0999 V2000
    9.6735   -8.4988    0.0000 C   0  0  0  0  0  0  0  0  0  0  0  0
   11.0526   -7.7026    0.0000 C   0  0  0  0  0  0  0  0  0  0  0  0
   12.4555   -8.5286    0.0000 C   0  0  0  0  0  0  0  0  0  0  0  0
   13.8730   -9.3117    0.0000 C   0  0  0  0  0  0  0  0  0  0  0  0
   11.6659   -9.9458    0.0000 C   0  0  0  0  0  0  0  0  0  0  0  0
   13.1603   -7.0669    0.0000 O   0  0  0  0  0  0  0  0  0  0  0  0
   13.9908  -10.9122    0.0000 O   0  0  0  0  0  0  0  0  0  0  0  0
   15.2761   -8.5303    0.0000 O   0  0  0  0  0  0  0  0  0  0  0  0
  1  2  1  0
  2  3  1  0
  3  4  1  0
  3  5  1  0
  3  6  1  0
  4  7  2  0
  4  8  1  0
M  END
>  <Name>  (166) 
2-Hydroxy-2-methylbutanoic

>  <logK_Lu_z=3.0_T=25_I=1.0>  (166) 
3.45

$$$$

     RDKit          2D

 12 12  0  0  0  0  0  0  0  0999 V2000
   19.0068   -8.1122    0.0000 C   0  0  0  0  0  0  0  0  0  0  0  0
   19.0068   -9.4422    0.0000 C   0  0  0  0  0  0  0  0  0  0  0  0
   17.8550   -7.4472    0.0000 C   0  0  0  0  0  0  0  0  0  0  0  0
   17.8550  -10.1072    0.0000 C   0  0  0  0  0  0  0  0  0  0  0  0
   16.7032   -8.1122    0.0000 C   0  0  0  0  0  0  0  0  0  0  0  0
   16.7032   -9.4422    0.0000 C   0  0  0  0  0  0  0  0  0  0  0  0
   15.5514   -7.4472    0.0000 C   0  0  0  0  0  0  0  0  0  0  0  0
   16.2164   -6.2954    0.0000 C   0  0  0  0  0  0  0  0  0  0  0  0
   14.3996   -6.7822    0.0000 C   0  0  0  0  0  0  0  0  0  0  0  0
   14.8864   -8.5990    0.0000 O   0  0  0  0  0  0  0  0  0  0  0  0
   14.3996   -5.4522    0.0000 O   0  0  0  0  0  0  0  0  0  0  0  0
   13.2478   -7.4472    0.0000 O   0  0  0  0  0  0  0  0  0  0  0  0
  2  1  2  0
  3  1  1  0
  4  2  1  0
  5  3  2  0
  6  4  2  0
  6  5  1  0
  5  7  1  0
  7  8  1  0
  7  9  1  0
  7 10  1  0
  9 11  2  0
  9 12  1  0
M  END
>  <Name>  (167) 
2-Hydroxy-2-phenylpropanoic

>  <logK_Lu_z=3.0_T=25_I=1.0>  (167) 
3.4

$$$$

     RDKit          2D

 18 18  0  0  0  0  0  0  0  0999 V2000
   16.1504   -8.2555    0.0000 C   0  0  0  0  0  0  0  0  0  0  0  0
   16.1504   -9.5855    0.0000 C   0  0  0  0  0  0  0  0  0  0  0  0
   14.9986   -7.5905    0.0000 C   0  0  0  0  0  0  0  0  0  0  0  0
   14.9986  -10.2505    0.0000 C   0  0  0  0  0  0  0  0  0  0  0  0
   13.8467   -8.2555    0.0000 C   0  0  0  0  0  0  0  0  0  0  0  0
   13.8467   -9.5855    0.0000 C   0  0  0  0  0  0  0  0  0  0  0  0
   14.9986  -11.5805    0.0000 C   0  0  0  0  0  0  0  0  0  0  0  0
   17.3022   -7.5905    0.0000 S   0  0  0  0  0  0  0  0  0  0  0  0
   12.6949   -7.5905    0.0000 S   0  0  0  0  0  0  0  0  0  0  0  0
   12.6949  -10.2505    0.0000 O   0  0  0  0  0  0  0  0  0  0  0  0
   16.1504  -12.2455    0.0000 O   0  0  0  0  0  0  0  0  0  0  0  0
   13.8467  -12.2455    0.0000 O   0  0  0  0  0  0  0  0  0  0  0  0
   16.6372   -6.4386    0.0000 O   0  0  0  0  0  0  0  0  0  0  0  0
   17.9672   -8.7423    0.0000 O   0  0  0  0  0  0  0  0  0  0  0  0
   18.4540   -6.9255    0.0000 O   0  0  0  0  0  0  0  0  0  0  0  0
   13.3599   -6.4386    0.0000 O   0  0  0  0  0  0  0  0  0  0  0  0
   12.0299   -8.7423    0.0000 O   0  0  0  0  0  0  0  0  0  0  0  0
   11.5431   -6.9255    0.0000 O   0  0  0  0  0  0  0  0  0  0  0  0
  2  1  2  0
  3  1  1  0
  4  2  1  0
  5  3  2  0
  6  4  2  0
  6  5  1  0
  4  7  1  0
  1  8  1  0
  5  9  1  0
  6 10  1  0
  7 11  1  0
  7 12  2  0
  8 13  2  0
  8 14  2  0
  8 15  1  0
  9 16  2  0
  9 17  2  0
  9 18  1  0
M  END
>  <Name>  (168) 
2-Hydroxy-3&5-disulfobenzoic

>  <logK_Lu_z=3.0_T=25_I=1.0>  (168) 
8.86

$$$$

     RDKit          2D

  6  5  0  0  0  0  0  0  0  0999 V2000
   10.4083   -7.7888    0.0000 C   0  0  0  0  0  0  0  0  0  0  0  0
   11.2172   -9.1898    0.0000 C   0  0  0  0  0  0  0  0  0  0  0  0
   12.8350   -9.1898    0.0000 C   0  0  0  0  0  0  0  0  0  0  0  0
   10.4083  -10.5909    0.0000 C   0  0  0  0  0  0  0  0  0  0  0  0
   13.6439   -7.7888    0.0000 O   0  0  0  0  0  0  0  0  0  0  0  0
   13.6439  -10.5909    0.0000 O   0  0  0  0  0  0  0  0  0  0  0  0
  1  2  2  0
  2  3  1  0
  2  4  1  0
  3  5  1  0
  3  6  2  0
M  END
>  <Name>  (169) 
2-Methylpropenoic

>  <logK_Lu_z=3.0_T=25_I=1.0>  (169) 
2.32

$$$$

     RDKit          2D

 17 18  0  0  0  0  0  0  0  0999 V2000
   12.4797   -7.9349    0.0000 C   0  0  0  0  0  0  0  0  0  0  0  0
   13.1447   -9.0868    0.0000 C   0  0  0  0  0  0  0  0  0  0  0  0
   11.1497   -7.9349    0.0000 C   0  0  0  0  0  0  0  0  0  0  0  0
   12.4797  -10.2386    0.0000 C   0  0  0  0  0  0  0  0  0  0  0  0
   10.4847   -9.0868    0.0000 C   0  0  0  0  0  0  0  0  0  0  0  0
   11.1497  -10.2386    0.0000 C   0  0  0  0  0  0  0  0  0  0  0  0
   14.4747   -9.0868    0.0000 C   0  0  0  0  0  0  0  0  0  0  0  0
   15.1397  -10.2386    0.0000 C   0  0  0  0  0  0  0  0  0  0  0  0
   13.1447  -11.3904    0.0000 C   0  0  0  0  0  0  0  0  0  0  0  0
   14.4747  -11.3904    0.0000 C   0  0  0  0  0  0  0  0  0  0  0  0
   15.1397   -7.9349    0.0000 S   0  0  0  0  0  0  0  0  0  0  0  0
   10.4847   -6.7831    0.0000 N   0  0  0  0  0  0  0  0  0  0  0  0
   16.2915   -8.5999    0.0000 O   0  0  0  0  0  0  0  0  0  0  0  0
   13.9879   -7.2699    0.0000 O   0  0  0  0  0  0  0  0  0  0  0  0
   15.8047   -6.7831    0.0000 O   0  0  0  0  0  0  0  0  0  0  0  0
    9.1547   -6.7831    0.0000 O   0  0  0  0  0  0  0  0  0  0  0  0
   13.1447   -6.7831    0.0000 O   0  0  0  0  0  0  0  0  0  0  0  0
  2  1  2  0
  3  1  1  0
  5  3  2  0
  6  4  2  0
  6  5  1  0
  7  2  1  0
  4  2  1  0
  8  7  2  0
  9  4  1  0
 10  8  1  0
 10  9  2  0
  7 11  1  0
  3 12  1  0
 11 13  2  0
 11 14  2  0
 11 15  1  0
 12 16  2  0
  1 17  1  0
M  END
>  <Name>  (170) 
2-Nitroso-1-hydroxynaphthalene-8-sulfonic

>  <logK_Lu_z=3.0_T=25_I=1.0>  (170) 
5.06

$$$$

     RDKit          2D

 12 12  0  0  0  0  0  0  0  0999 V2000
    9.2451   -7.8069    0.0000 C   0  0  0  0  0  0  0  0  0  0  0  0
    9.9098   -8.9411    0.0000 C   0  0  0  0  0  0  0  0  0  0  0  0
    7.9157   -7.8069    0.0000 C   0  0  0  0  0  0  0  0  0  0  0  0
    9.2451  -10.0932    0.0000 C   0  0  0  0  0  0  0  0  0  0  0  0
    7.2512   -8.9411    0.0000 C   0  0  0  0  0  0  0  0  0  0  0  0
    7.9157  -10.0932    0.0000 C   0  0  0  0  0  0  0  0  0  0  0  0
   11.2301   -8.9411    0.0000 C   0  0  0  0  0  0  0  0  0  0  0  0
   11.8948   -7.8069    0.0000 C   0  0  0  0  0  0  0  0  0  0  0  0
   11.8948  -10.0932    0.0000 O   0  0  0  0  0  0  0  0  0  0  0  0
   11.2301   -6.6549    0.0000 O   0  0  0  0  0  0  0  0  0  0  0  0
   13.2241   -7.8069    0.0000 O   0  0  0  0  0  0  0  0  0  0  0  0
   13.2241  -10.0932    0.0000 C   0  0  0  0  0  0  0  0  0  0  0  0
  2  1  2  0
  3  1  1  0
  4  2  1  0
  5  3  2  0
  6  4  2  0
  6  5  1  0
  2  7  1  0
  7  8  1  0
  7  9  1  0
  8 10  2  0
  8 11  1  0
  9 12  1  0
M  END
>  <Name>  (171) 
2-Phenyl-2-methoxyethanoic

>  <logK_Lu_z=3.0_T=25_I=1.0>  (171) 
2.31

$$$$

     RDKit          2D

 17 16  0  0  0  0  0  0  0  0999 V2000
   15.7589  -10.3436    0.0000 N   0  0  0  0  0  0  0  0  0  0  0  0
   16.4314   -9.1788    0.0000 C   0  0  0  0  0  0  0  0  0  0  0  0
   17.7764   -9.1788    0.0000 C   0  0  0  0  0  0  0  0  0  0  0  0
   16.4314  -11.5083    0.0000 C   0  0  0  0  0  0  0  0  0  0  0  0
   17.7764  -11.5083    0.0000 C   0  0  0  0  0  0  0  0  0  0  0  0
   14.4139  -10.3436    0.0000 C   0  0  0  0  0  0  0  0  0  0  0  0
   14.4139   -8.9986    0.0000 C   0  0  0  0  0  0  0  0  0  0  0  0
   14.4139  -11.6885    0.0000 C   0  0  0  0  0  0  0  0  0  0  0  0
   13.0690  -10.3436    0.0000 C   0  0  0  0  0  0  0  0  0  0  0  0
   12.3965  -11.5083    0.0000 C   0  0  0  0  0  0  0  0  0  0  0  0
   13.2492  -12.3610    0.0000 C   0  0  0  0  0  0  0  0  0  0  0  0
   15.5787   -8.3261    0.0000 C   0  0  0  0  0  0  0  0  0  0  0  0
   18.4489   -8.0140    0.0000 O   0  0  0  0  0  0  0  0  0  0  0  0
   18.4489  -12.6731    0.0000 O   0  0  0  0  0  0  0  0  0  0  0  0
   11.0515  -11.5083    0.0000 O   0  0  0  0  0  0  0  0  0  0  0  0
   15.5787   -6.9811    0.0000 O   0  0  0  0  0  0  0  0  0  0  0  0
   13.2492  -13.7060    0.0000 O   0  0  0  0  0  0  0  0  0  0  0  0
  1  2  1  0
  2  3  1  0
  1  4  1  0
  4  5  1  0
  1  6  1  0
  6  7  1  0
  6  8  1  0
  6  9  1  0
  9 10  1  0
  8 11  1  0
  7 12  1  0
  3 13  1  0
  5 14  1  0
 10 15  1  0
 12 16  1  0
 11 17  1  0
M  END
>  <Name>  (172) 
2-[bis(2-hydroxyethyl)amino]-2(hydroxymethyl)-1&3-propanediol

>  <logK_Lu_z=3.0_T=25_I=1.0>  (172) 
2.34

$$$$

     RDKit          2D

 16 16  0  0  0  0  0  0  0  0999 V2000
   13.6186  -10.0752    0.0000 C   0  0  0  0  0  0  0  0  0  0  0  0
   13.6186  -11.4052    0.0000 C   0  0  0  0  0  0  0  0  0  0  0  0
   12.4667   -9.4102    0.0000 C   0  0  0  0  0  0  0  0  0  0  0  0
   12.4667  -12.0702    0.0000 C   0  0  0  0  0  0  0  0  0  0  0  0
   11.3149  -10.0752    0.0000 C   0  0  0  0  0  0  0  0  0  0  0  0
   11.3149  -11.4052    0.0000 C   0  0  0  0  0  0  0  0  0  0  0  0
   12.4667  -13.4002    0.0000 C   0  0  0  0  0  0  0  0  0  0  0  0
   14.7704   -9.4102    0.0000 N   0  0  0  0  0  0  0  0  0  0  0  0
   10.1631   -9.4102    0.0000 N   0  0  0  0  0  0  0  0  0  0  0  0
   14.7704   -8.0802    0.0000 O   0  0  0  0  0  0  0  0  0  0  0  0
   15.9222  -10.0752    0.0000 O   0  0  0  0  0  0  0  0  0  0  0  0
   10.1631   -8.0802    0.0000 O   0  0  0  0  0  0  0  0  0  0  0  0
    9.0113  -10.0752    0.0000 O   0  0  0  0  0  0  0  0  0  0  0  0
   13.6186  -14.0652    0.0000 O   0  0  0  0  0  0  0  0  0  0  0  0
   11.3149  -14.0652    0.0000 O   0  0  0  0  0  0  0  0  0  0  0  0
   14.7704  -12.0702    0.0000 O   0  0  0  0  0  0  0  0  0  0  0  0
  2  1  2  0
  3  1  1  0
  4  2  1  0
  5  3  2  0
  6  4  2  0
  6  5  1  0
  4  7  1  0
  1  8  1  0
  5  9  1  0
  8 10  1  0
  8 11  2  0
  9 12  1  0
  9 13  2  0
  7 14  2  0
  7 15  1  0
  2 16  1  0
M  CHG  4   8   1   9   1  10  -1  12  -1
M  END
>  <Name>  (173) 
3&5-Dinitrosalicylic

>  <logK_Lu_z=3.0_T=25_I=1.0>  (173) 
5.51

$$$$

     RDKit          2D

 29 30  0  0  0  0  0  0  0  0999 V2000
   14.8587   -7.4053    0.0000 C   0  0  0  0  0  0  0  0  0  0  0  0
   16.0289   -6.7732    0.0000 C   0  0  0  0  0  0  0  0  0  0  0  0
   14.8587   -8.7401    0.0000 N   0  0  0  0  0  0  0  0  0  0  0  0
   17.1516   -7.4825    0.0000 C   0  0  0  0  0  0  0  0  0  0  0  0
   15.9513   -9.4645    0.0000 C   0  0  0  0  0  0  0  0  0  0  0  0
   17.1196   -8.8051    0.0000 C   0  0  0  0  0  0  0  0  0  0  0  0
   15.9896  -10.7405    0.0000 C   0  0  0  0  0  0  0  0  0  0  0  0
   13.7335   -6.8222    0.0000 C   0  0  0  0  0  0  0  0  0  0  0  0
   15.2332  -11.7807    0.0000 N   0  0  0  0  0  0  0  0  0  0  0  0
   12.4740   -6.9134    0.0000 N   0  0  0  0  0  0  0  0  0  0  0  0
   13.9654  -12.0640    0.0000 C   0  0  0  0  0  0  0  0  0  0  0  0
   12.8859  -11.3203    0.0000 C   0  0  0  0  0  0  0  0  0  0  0  0
   11.6749  -11.8675    0.0000 C   0  0  0  0  0  0  0  0  0  0  0  0
   10.5372  -11.1902    0.0000 N   0  0  0  0  0  0  0  0  0  0  0  0
   16.0794  -12.8350    0.0000 C   0  0  0  0  0  0  0  0  0  0  0  0
   15.7024  -14.0843    0.0000 C   0  0  0  0  0  0  0  0  0  0  0  0
   10.5163   -9.8647    0.0000 C   0  0  0  0  0  0  0  0  0  0  0  0
   11.6128   -9.1059    0.0000 C   0  0  0  0  0  0  0  0  0  0  0  0
   11.5192   -7.7983    0.0000 C   0  0  0  0  0  0  0  0  0  0  0  0
   11.9612   -5.6456    0.0000 C   0  0  0  0  0  0  0  0  0  0  0  0
   12.7962   -4.6180    0.0000 C   0  0  0  0  0  0  0  0  0  0  0  0
    9.3868  -11.8588    0.0000 C   0  0  0  0  0  0  0  0  0  0  0  0
    8.2054  -11.2814    0.0000 C   0  0  0  0  0  0  0  0  0  0  0  0
   16.6364  -15.0372    0.0000 O   0  0  0  0  0  0  0  0  0  0  0  0
   14.4302  -14.4720    0.0000 O   0  0  0  0  0  0  0  0  0  0  0  0
    7.0958  -12.0184    0.0000 O   0  0  0  0  0  0  0  0  0  0  0  0
    8.0676   -9.9579    0.0000 O   0  0  0  0  0  0  0  0  0  0  0  0
   12.2484   -3.3905    0.0000 O   0  0  0  0  0  0  0  0  0  0  0  0
   14.1188   -4.6612    0.0000 O   0  0  0  0  0  0  0  0  0  0  0  0
  2  1  2  0
  3  1  1  0
  4  2  1  0
  5  3  2  0
  6  4  2  0
  6  5  1  0
  5  7  1  0
  1  8  1  0
  7  9  1  0
  8 10  1  0
  9 11  1  0
 11 12  1  0
 12 13  1  0
 13 14  1  0
  9 15  1  0
 15 16  1  0
 14 17  1  0
 17 18  1  0
 18 19  1  0
 19 10  1  0
 10 20  1  0
 20 21  1  0
 14 22  1  0
 22 23  1  0
 16 24  2  0
 16 25  1  0
 23 26  1  0
 23 27  2  0
 21 28  2  0
 21 29  1  0
M  END
>  <Name>  (174) 
3&7&11&17-Tetraazabicyclo(11-3-1)heptadeca-1(17)&13&15-triene3&7&11-triacetic

>  <logK_Lu_z=3.0_T=25_I=1.0>  (174) 
10.07

$$$$

     RDKit          2D

 24 24  0  0  0  0  0  0  0  0999 V2000
   13.6186  -10.4210    0.0000 C   0  0  0  0  0  0  0  0  0  0  0  0
   13.6186  -11.7510    0.0000 C   0  0  0  0  0  0  0  0  0  0  0  0
   12.4668   -9.7560    0.0000 C   0  0  0  0  0  0  0  0  0  0  0  0
   12.4668  -12.4160    0.0000 C   0  0  0  0  0  0  0  0  0  0  0  0
   11.3150  -10.4210    0.0000 C   0  0  0  0  0  0  0  0  0  0  0  0
   11.3150  -11.7510    0.0000 C   0  0  0  0  0  0  0  0  0  0  0  0
   14.7705   -9.7560    0.0000 N   0  0  0  0  0  0  0  0  0  0  0  0
   15.9223  -10.4210    0.0000 N   0  0  0  0  0  0  0  0  0  0  0  0
   12.4668  -13.7460    0.0000 S   0  0  0  0  0  0  0  0  0  0  0  0
   17.0741   -9.7560    0.0000 C   0  0  0  0  0  0  0  0  0  0  0  0
   18.2259  -10.4210    0.0000 C   0  0  0  0  0  0  0  0  0  0  0  0
   17.0741   -8.4260    0.0000 C   0  0  0  0  0  0  0  0  0  0  0  0
   18.2259   -7.7610    0.0000 O   0  0  0  0  0  0  0  0  0  0  0  0
   15.9223   -7.7610    0.0000 C   0  0  0  0  0  0  0  0  0  0  0  0
   19.3777   -9.7560    0.0000 C   0  0  0  0  0  0  0  0  0  0  0  0
   18.2259  -11.7510    0.0000 O   0  0  0  0  0  0  0  0  0  0  0  0
   10.1632   -9.7560    0.0000 S   0  0  0  0  0  0  0  0  0  0  0  0
   11.1369  -13.7460    0.0000 O   0  0  0  0  0  0  0  0  0  0  0  0
   13.7968  -13.7460    0.0000 O   0  0  0  0  0  0  0  0  0  0  0  0
   12.4668   -8.4260    0.0000 O   0  0  0  0  0  0  0  0  0  0  0  0
   10.8282   -8.6042    0.0000 O   0  0  0  0  0  0  0  0  0  0  0  0
    9.4982  -10.9078    0.0000 O   0  0  0  0  0  0  0  0  0  0  0  0
    9.0114   -9.0910    0.0000 O   0  0  0  0  0  0  0  0  0  0  0  0
   12.4668  -15.0760    0.0000 O   0  0  0  0  0  0  0  0  0  0  0  0
  2  1  2  0
  3  1  1  0
  4  2  1  0
  5  3  2  0
  6  4  2  0
  6  5  1  0
  1  7  1  0
  7  8  2  0
  4  9  1  0
  8 10  1  0
 10 11  1  0
 10 12  1  0
 12 13  2  0
 12 14  1  0
 11 15  1  0
 11 16  2  0
  5 17  1  0
  9 18  2  0
  9 19  2  0
  3 20  1  0
 17 21  2  0
 17 22  2  0
 17 23  1  0
  9 24  1  0
M  END
>  <Name>  (175) 
3-(2-hydroxy-3&5-disulfophenylazo)pentane-2&4-dione

>  <logK_Lu_z=3.0_T=25_I=1.0>  (175) 
8.64

$$$$

     RDKit          2D

 19 19  0  0  0  0  0  0  0  0999 V2000
   11.9172   -8.7365    0.0000 C   0  0  0  0  0  0  0  0  0  0  0  0
   11.9172  -10.0665    0.0000 C   0  0  0  0  0  0  0  0  0  0  0  0
   10.7653   -8.0715    0.0000 C   0  0  0  0  0  0  0  0  0  0  0  0
   10.7653  -10.7315    0.0000 C   0  0  0  0  0  0  0  0  0  0  0  0
    9.6135   -8.7365    0.0000 C   0  0  0  0  0  0  0  0  0  0  0  0
    9.6135  -10.0665    0.0000 C   0  0  0  0  0  0  0  0  0  0  0  0
   13.0690   -8.0715    0.0000 N   0  0  0  0  0  0  0  0  0  0  0  0
   14.2208   -8.7365    0.0000 N   0  0  0  0  0  0  0  0  0  0  0  0
   15.3726   -8.0715    0.0000 C   0  0  0  0  0  0  0  0  0  0  0  0
   16.5244   -8.7365    0.0000 C   0  0  0  0  0  0  0  0  0  0  0  0
   15.3726   -6.7415    0.0000 C   0  0  0  0  0  0  0  0  0  0  0  0
   16.5244   -6.0765    0.0000 O   0  0  0  0  0  0  0  0  0  0  0  0
   14.2208   -6.0765    0.0000 C   0  0  0  0  0  0  0  0  0  0  0  0
   17.6762   -8.0715    0.0000 C   0  0  0  0  0  0  0  0  0  0  0  0
   16.5244  -10.0665    0.0000 O   0  0  0  0  0  0  0  0  0  0  0  0
   10.7653   -6.7415    0.0000 O   0  0  0  0  0  0  0  0  0  0  0  0
    8.4617  -10.7315    0.0000 N   0  0  0  0  0  0  0  0  0  0  0  0
    8.4617  -12.0615    0.0000 O   0  0  0  0  0  0  0  0  0  0  0  0
    7.3099  -10.0665    0.0000 O   0  0  0  0  0  0  0  0  0  0  0  0
  2  1  2  0
  3  1  1  0
  4  2  1  0
  5  3  2  0
  6  4  2  0
  6  5  1  0
  1  7  1  0
  7  8  2  0
  8  9  1  0
  9 10  1  0
  9 11  1  0
 11 12  2  0
 11 13  1  0
 10 14  1  0
 10 15  2  0
  3 16  1  0
  6 17  1  0
 17 18  1  0
 17 19  2  0
M  CHG  2  17   1  18  -1
M  END
>  <Name>  (176) 
3-(2-hydroxy-4-nitrophenylazo)pentane-2&4-dione

>  <logK_Lu_z=3.0_T=25_I=1.0>  (176) 
9.17

$$$$

     RDKit          2D

 23 23  0  0  0  0  0  0  0  0999 V2000
   13.2180  -10.2741    0.0000 C   0  0  0  0  0  0  0  0  0  0  0  0
   13.2180  -11.6041    0.0000 C   0  0  0  0  0  0  0  0  0  0  0  0
   12.0662   -9.6091    0.0000 C   0  0  0  0  0  0  0  0  0  0  0  0
   12.0662  -12.2691    0.0000 C   0  0  0  0  0  0  0  0  0  0  0  0
   10.9144  -10.2741    0.0000 C   0  0  0  0  0  0  0  0  0  0  0  0
   10.9144  -11.6041    0.0000 C   0  0  0  0  0  0  0  0  0  0  0  0
   14.3699   -9.6091    0.0000 N   0  0  0  0  0  0  0  0  0  0  0  0
   15.5217  -10.2741    0.0000 N   0  0  0  0  0  0  0  0  0  0  0  0
   12.0662  -13.5991    0.0000 N   0  0  0  0  0  0  0  0  0  0  0  0
   16.6735   -9.6091    0.0000 C   0  0  0  0  0  0  0  0  0  0  0  0
   17.8253  -10.2741    0.0000 C   0  0  0  0  0  0  0  0  0  0  0  0
   16.6735   -8.2791    0.0000 C   0  0  0  0  0  0  0  0  0  0  0  0
   17.8253   -7.6141    0.0000 O   0  0  0  0  0  0  0  0  0  0  0  0
   15.5217   -7.6141    0.0000 C   0  0  0  0  0  0  0  0  0  0  0  0
   17.8253  -11.6041    0.0000 C   0  0  0  0  0  0  0  0  0  0  0  0
   18.9771   -9.6091    0.0000 O   0  0  0  0  0  0  0  0  0  0  0  0
    9.7626   -9.6091    0.0000 S   0  0  0  0  0  0  0  0  0  0  0  0
   10.9144  -14.2641    0.0000 O   0  0  0  0  0  0  0  0  0  0  0  0
   13.2180  -14.2641    0.0000 O   0  0  0  0  0  0  0  0  0  0  0  0
   12.0662   -8.2791    0.0000 O   0  0  0  0  0  0  0  0  0  0  0  0
   10.4276   -8.4573    0.0000 O   0  0  0  0  0  0  0  0  0  0  0  0
    9.0976  -10.7609    0.0000 O   0  0  0  0  0  0  0  0  0  0  0  0
    8.6108   -8.9441    0.0000 O   0  0  0  0  0  0  0  0  0  0  0  0
  2  1  2  0
  3  1  1  0
  4  2  1  0
  5  3  2  0
  6  4  2  0
  6  5  1  0
  1  7  1  0
  7  8  2  0
  4  9  1  0
  8 10  1  0
 10 11  1  0
 10 12  1  0
 12 13  2  0
 12 14  1  0
 11 15  1  0
 11 16  2  0
  5 17  1  0
  9 18  2  0
  9 19  1  0
  3 20  1  0
 17 21  2  0
 17 22  2  0
 17 23  1  0
M  CHG  2   9   1  19  -1
M  END
>  <Name>  (177) 
3-(2-hydroxy-5-nitro-3-sulfophenylazo)pentane-2&4-dione

>  <logK_Lu_z=3.0_T=25_I=1.0>  (177) 
8.45

$$$$

     RDKit          2D

 16 16  0  0  0  0  0  0  0  0999 V2000
   12.0133  -10.5793    0.0000 C   0  0  0  0  0  0  0  0  0  0  0  0
   12.0133  -11.9093    0.0000 C   0  0  0  0  0  0  0  0  0  0  0  0
   10.8615   -9.9143    0.0000 C   0  0  0  0  0  0  0  0  0  0  0  0
   10.8615  -12.5742    0.0000 C   0  0  0  0  0  0  0  0  0  0  0  0
    9.7097  -10.5793    0.0000 C   0  0  0  0  0  0  0  0  0  0  0  0
    9.7097  -11.9093    0.0000 C   0  0  0  0  0  0  0  0  0  0  0  0
   13.1651   -9.9143    0.0000 N   0  0  0  0  0  0  0  0  0  0  0  0
   14.3169  -10.5793    0.0000 N   0  0  0  0  0  0  0  0  0  0  0  0
   15.4687   -9.9143    0.0000 C   0  0  0  0  0  0  0  0  0  0  0  0
   16.6205  -10.5793    0.0000 C   0  0  0  0  0  0  0  0  0  0  0  0
   15.4687   -8.5843    0.0000 C   0  0  0  0  0  0  0  0  0  0  0  0
   16.6205   -7.9193    0.0000 O   0  0  0  0  0  0  0  0  0  0  0  0
   14.3169   -7.9193    0.0000 C   0  0  0  0  0  0  0  0  0  0  0  0
   17.7723   -9.9143    0.0000 C   0  0  0  0  0  0  0  0  0  0  0  0
   16.6205  -11.9093    0.0000 O   0  0  0  0  0  0  0  0  0  0  0  0
   10.8615   -8.5843    0.0000 O   0  0  0  0  0  0  0  0  0  0  0  0
  2  1  2  0
  3  1  1  0
  4  2  1  0
  5  3  2  0
  6  4  2  0
  6  5  1  0
  1  7  1  0
  7  8  2  0
  8  9  1  0
  9 10  1  0
  9 11  1  0
 11 12  2  0
 11 13  1  0
 10 14  1  0
 10 15  2  0
  3 16  1  0
M  END
>  <Name>  (178) 
3-(2-hydroxyphenylazo)pentane-2&4-dione

>  <logK_Lu_z=3.0_T=25_I=1.0>  (178) 
9.65

$$$$

     RDKit          2D

 21 21  0  0  0  0  0  0  0  0999 V2000
   11.7759   -8.4113    0.0000 C   0  0  0  0  0  0  0  0  0  0  0  0
   11.7759   -9.7413    0.0000 C   0  0  0  0  0  0  0  0  0  0  0  0
   10.6241   -7.7463    0.0000 C   0  0  0  0  0  0  0  0  0  0  0  0
   10.6241  -10.4063    0.0000 C   0  0  0  0  0  0  0  0  0  0  0  0
    9.4723   -8.4113    0.0000 C   0  0  0  0  0  0  0  0  0  0  0  0
    9.4723   -9.7413    0.0000 C   0  0  0  0  0  0  0  0  0  0  0  0
   12.9277   -7.7463    0.0000 N   0  0  0  0  0  0  0  0  0  0  0  0
   14.0795   -8.4113    0.0000 N   0  0  0  0  0  0  0  0  0  0  0  0
   15.2313   -7.7463    0.0000 C   0  0  0  0  0  0  0  0  0  0  0  0
   16.3831   -8.4113    0.0000 C   0  0  0  0  0  0  0  0  0  0  0  0
   15.2313   -6.4163    0.0000 C   0  0  0  0  0  0  0  0  0  0  0  0
   16.3831   -5.7513    0.0000 O   0  0  0  0  0  0  0  0  0  0  0  0
   14.0795   -5.7513    0.0000 C   0  0  0  0  0  0  0  0  0  0  0  0
   17.5349   -7.7463    0.0000 C   0  0  0  0  0  0  0  0  0  0  0  0
   16.3831   -9.7413    0.0000 O   0  0  0  0  0  0  0  0  0  0  0  0
    8.3205   -7.7463    0.0000 S   0  0  0  0  0  0  0  0  0  0  0  0
   10.6241   -6.4163    0.0000 O   0  0  0  0  0  0  0  0  0  0  0  0
    8.9855   -6.5945    0.0000 O   0  0  0  0  0  0  0  0  0  0  0  0
    7.6555   -8.8981    0.0000 O   0  0  0  0  0  0  0  0  0  0  0  0
    7.1687   -7.0813    0.0000 O   0  0  0  0  0  0  0  0  0  0  0  0
   10.6241  -11.7363    0.0000 Cl  0  0  0  0  0  0  0  0  0  0  0  0
  2  1  2  0
  3  1  1  0
  4  2  1  0
  5  3  2  0
  6  4  2  0
  6  5  1  0
  1  7  1  0
  7  8  2  0
  8  9  1  0
  9 10  1  0
  9 11  1  0
 11 12  2  0
 11 13  1  0
 10 14  1  0
 10 15  2  0
  5 16  1  0
  3 17  1  0
 16 18  2  0
 16 19  2  0
 16 20  1  0
  4 21  1  0
M  END
>  <Name>  (179) 
3-(5-chloro-2-hydroxy-3-sulfophenylazo)pentane-2&4-dione

>  <logK_Lu_z=3.0_T=25_I=1.0>  (179) 
8.86

$$$$

     RDKit          2D

 10  9  0  0  0  0  0  0  0  0999 V2000
   12.5148   -6.7141    0.0000 C   0  0  0  0  0  0  0  0  0  0  0  0
   11.2169   -7.4672    0.0000 C   0  0  0  0  0  0  0  0  0  0  0  0
   10.0636   -6.8047    0.0000 O   0  0  0  0  0  0  0  0  0  0  0  0
   11.2197   -8.7972    0.0000 C   0  0  0  0  0  0  0  0  0  0  0  0
   10.0694   -9.4647    0.0000 C   0  0  0  0  0  0  0  0  0  0  0  0
   12.3730   -9.4597    0.0000 C   0  0  0  0  0  0  0  0  0  0  0  0
   12.3759  -10.7897    0.0000 O   0  0  0  0  0  0  0  0  0  0  0  0
   13.5234   -8.7922    0.0000 C   0  0  0  0  0  0  0  0  0  0  0  0
    8.9161   -8.8022    0.0000 C   0  0  0  0  0  0  0  0  0  0  0  0
    7.7658   -9.4697    0.0000 C   0  0  0  0  0  0  0  0  0  0  0  0
  1  2  1  0
  2  3  2  0
  2  4  1  0
  4  5  1  0
  4  6  1  0
  6  7  2  0
  6  8  1  0
  5  9  1  0
  9 10  2  0
M  END
>  <Name>  (180) 
3-allylpentanedione

>  <logK_Lu_z=3.0_T=25_I=1.0>  (180) 
6.79

$$$$

     RDKit          2D

 18 19  0  0  0  0  0  0  0  0999 V2000
   14.0276   -9.6593    0.0000 N   0  0  0  0  0  0  0  0  0  0  0  0
   15.3745   -9.6593    0.0000 N   0  0  0  0  0  0  0  0  0  0  0  0
   16.0479  -10.8257    0.0000 C   0  0  0  0  0  0  0  0  0  0  0  0
   17.3948  -10.8257    0.0000 C   0  0  0  0  0  0  0  0  0  0  0  0
   15.3745  -11.9922    0.0000 C   0  0  0  0  0  0  0  0  0  0  0  0
   18.0683  -11.9922    0.0000 C   0  0  0  0  0  0  0  0  0  0  0  0
   16.0479  -13.1586    0.0000 C   0  0  0  0  0  0  0  0  0  0  0  0
   17.3948  -13.1586    0.0000 C   0  0  0  0  0  0  0  0  0  0  0  0
   13.3541   -8.4928    0.0000 C   0  0  0  0  0  0  0  0  0  0  0  0
   12.0072   -8.4928    0.0000 C   0  0  0  0  0  0  0  0  0  0  0  0
   14.0276   -7.3264    0.0000 C   0  0  0  0  0  0  0  0  0  0  0  0
   11.3338   -7.3264    0.0000 C   0  0  0  0  0  0  0  0  0  0  0  0
   13.3541   -6.1599    0.0000 C   0  0  0  0  0  0  0  0  0  0  0  0
   12.0072   -6.1599    0.0000 C   0  0  0  0  0  0  0  0  0  0  0  0
   15.3745   -7.3264    0.0000 O   0  0  0  0  0  0  0  0  0  0  0  0
   14.0276   -4.9935    0.0000 O   0  0  0  0  0  0  0  0  0  0  0  0
   11.3338   -4.9935    0.0000 O   0  0  0  0  0  0  0  0  0  0  0  0
   18.0683  -14.3251    0.0000 Br  0  0  0  0  0  0  0  0  0  0  0  0
  1  2  2  0
  4  3  2  0
  5  3  1  0
  6  4  1  0
  7  5  2  0
  8  6  2  0
  8  7  1  0
  2  3  1  0
 10  9  2  0
 11  9  1  0
 12 10  1  0
 13 11  2  0
 14 12  2  0
 14 13  1  0
  1  9  1  0
 11 15  1  0
 13 16  1  0
 14 17  1  0
  8 18  1  0
M  END
>  <Name>  (181) 
4-((E)-(4-Bromophenyl)diazenyl)-1&2&3-benzenetriol

>  <logK_Lu_z=3.0_T=25_I=1.0>  (181) 
7.81

$$$$

     RDKit          2D

 18 19  0  0  0  0  0  0  0  0999 V2000
   13.5789  -12.6718    0.0000 N   0  0  0  0  0  0  0  0  0  0  0  0
   14.9258  -12.6718    0.0000 N   0  0  0  0  0  0  0  0  0  0  0  0
   15.5993  -13.8383    0.0000 C   0  0  0  0  0  0  0  0  0  0  0  0
   16.9462  -13.8383    0.0000 C   0  0  0  0  0  0  0  0  0  0  0  0
   14.9258  -15.0047    0.0000 C   0  0  0  0  0  0  0  0  0  0  0  0
   17.6196  -15.0047    0.0000 C   0  0  0  0  0  0  0  0  0  0  0  0
   15.5993  -16.1712    0.0000 C   0  0  0  0  0  0  0  0  0  0  0  0
   16.9462  -16.1712    0.0000 C   0  0  0  0  0  0  0  0  0  0  0  0
   12.9055  -11.5054    0.0000 C   0  0  0  0  0  0  0  0  0  0  0  0
   11.5586  -11.5054    0.0000 C   0  0  0  0  0  0  0  0  0  0  0  0
   13.5789  -10.3389    0.0000 C   0  0  0  0  0  0  0  0  0  0  0  0
   10.8851  -10.3389    0.0000 C   0  0  0  0  0  0  0  0  0  0  0  0
   12.9055   -9.1725    0.0000 C   0  0  0  0  0  0  0  0  0  0  0  0
   11.5586   -9.1725    0.0000 C   0  0  0  0  0  0  0  0  0  0  0  0
   14.9258  -10.3389    0.0000 O   0  0  0  0  0  0  0  0  0  0  0  0
   13.5789   -8.0060    0.0000 O   0  0  0  0  0  0  0  0  0  0  0  0
   10.8851   -8.0060    0.0000 O   0  0  0  0  0  0  0  0  0  0  0  0
   17.6196  -17.3376    0.0000 Cl  0  0  0  0  0  0  0  0  0  0  0  0
  1  2  2  0
  4  3  2  0
  5  3  1  0
  6  4  1  0
  7  5  2  0
  8  6  2  0
  8  7  1  0
  2  3  1  0
 10  9  2  0
 11  9  1  0
 12 10  1  0
 13 11  2  0
 14 12  2  0
 14 13  1  0
  1  9  1  0
 11 15  1  0
 13 16  1  0
 14 17  1  0
  8 18  1  0
M  END
>  <Name>  (182) 
4-((E)-(4-Chlorophenyl)diazenyl)-1&2&3-benzenetriol

>  <logK_Lu_z=3.0_T=25_I=1.0>  (182) 
7.6

$$$$

     RDKit          2D

 18 19  0  0  0  0  0  0  0  0999 V2000
   14.2840  -11.1656    0.0000 N   0  0  0  0  0  0  0  0  0  0  0  0
   15.6309  -11.1656    0.0000 N   0  0  0  0  0  0  0  0  0  0  0  0
   16.3043  -12.3320    0.0000 C   0  0  0  0  0  0  0  0  0  0  0  0
   17.6512  -12.3320    0.0000 C   0  0  0  0  0  0  0  0  0  0  0  0
   15.6309  -13.4985    0.0000 C   0  0  0  0  0  0  0  0  0  0  0  0
   18.3247  -13.4985    0.0000 C   0  0  0  0  0  0  0  0  0  0  0  0
   16.3043  -14.6649    0.0000 C   0  0  0  0  0  0  0  0  0  0  0  0
   17.6512  -14.6649    0.0000 C   0  0  0  0  0  0  0  0  0  0  0  0
   13.6105   -9.9991    0.0000 C   0  0  0  0  0  0  0  0  0  0  0  0
   12.2636   -9.9991    0.0000 C   0  0  0  0  0  0  0  0  0  0  0  0
   14.2840   -8.8327    0.0000 C   0  0  0  0  0  0  0  0  0  0  0  0
   11.5902   -8.8327    0.0000 C   0  0  0  0  0  0  0  0  0  0  0  0
   13.6105   -7.6662    0.0000 C   0  0  0  0  0  0  0  0  0  0  0  0
   12.2636   -7.6662    0.0000 C   0  0  0  0  0  0  0  0  0  0  0  0
   15.6309   -8.8327    0.0000 O   0  0  0  0  0  0  0  0  0  0  0  0
   14.2840   -6.4998    0.0000 O   0  0  0  0  0  0  0  0  0  0  0  0
   11.5902   -6.4998    0.0000 O   0  0  0  0  0  0  0  0  0  0  0  0
   18.3247  -15.8314    0.0000 F   0  0  0  0  0  0  0  0  0  0  0  0
  1  2  2  0
  4  3  2  0
  5  3  1  0
  6  4  1  0
  7  5  2  0
  8  6  2  0
  8  7  1  0
  2  3  1  0
 10  9  2  0
 11  9  1  0
 12 10  1  0
 13 11  2  0
 14 12  2  0
 14 13  1  0
  1  9  1  0
 11 15  1  0
 13 16  1  0
 14 17  1  0
  8 18  1  0
M  END
>  <Name>  (183) 
4-((E)-(4-Fluorophenyl)diazenyl)-1&2&3-benzenetriol

>  <logK_Lu_z=3.0_T=25_I=1.0>  (183) 
7.27

$$$$

     RDKit          2D

 18 19  0  0  0  0  0  0  0  0999 V2000
   12.6335  -10.5406    0.0000 N   0  0  0  0  0  0  0  0  0  0  0  0
   13.9804  -10.5406    0.0000 N   0  0  0  0  0  0  0  0  0  0  0  0
   14.6538  -11.7071    0.0000 C   0  0  0  0  0  0  0  0  0  0  0  0
   16.0007  -11.7071    0.0000 C   0  0  0  0  0  0  0  0  0  0  0  0
   13.9804  -12.8735    0.0000 C   0  0  0  0  0  0  0  0  0  0  0  0
   16.6742  -12.8735    0.0000 C   0  0  0  0  0  0  0  0  0  0  0  0
   14.6538  -14.0400    0.0000 C   0  0  0  0  0  0  0  0  0  0  0  0
   16.0007  -14.0400    0.0000 C   0  0  0  0  0  0  0  0  0  0  0  0
   11.9600   -9.3742    0.0000 C   0  0  0  0  0  0  0  0  0  0  0  0
   10.6131   -9.3742    0.0000 C   0  0  0  0  0  0  0  0  0  0  0  0
   12.6335   -8.2077    0.0000 C   0  0  0  0  0  0  0  0  0  0  0  0
    9.9397   -8.2077    0.0000 C   0  0  0  0  0  0  0  0  0  0  0  0
   11.9600   -7.0413    0.0000 C   0  0  0  0  0  0  0  0  0  0  0  0
   10.6131   -7.0413    0.0000 C   0  0  0  0  0  0  0  0  0  0  0  0
   13.9804   -8.2077    0.0000 O   0  0  0  0  0  0  0  0  0  0  0  0
   12.6335   -5.8748    0.0000 O   0  0  0  0  0  0  0  0  0  0  0  0
    9.9397   -5.8748    0.0000 O   0  0  0  0  0  0  0  0  0  0  0  0
   16.6742  -15.2064    0.0000 I   0  0  0  0  0  0  0  0  0  0  0  0
  1  2  2  0
  4  3  2  0
  5  3  1  0
  6  4  1  0
  7  5  2  0
  8  6  2  0
  8  7  1  0
  2  3  1  0
 10  9  2  0
 11  9  1  0
 12 10  1  0
 13 11  2  0
 14 12  2  0
 14 13  1  0
  1  9  1  0
 11 15  1  0
 13 16  1  0
 14 17  1  0
  8 18  1  0
M  END
>  <Name>  (184) 
4-((E)-(4-Iodophenyl)diazenyl)-1&2&3-benzenetriol

>  <logK_Lu_z=3.0_T=25_I=1.0>  (184) 
8.13

$$$$

     RDKit          2D

 17 18  0  0  0  0  0  0  0  0999 V2000
   13.1714  -10.2357    0.0000 N   0  0  0  0  0  0  0  0  0  0  0  0
   14.5183  -10.2357    0.0000 N   0  0  0  0  0  0  0  0  0  0  0  0
   15.1917  -11.4021    0.0000 C   0  0  0  0  0  0  0  0  0  0  0  0
   16.5386  -11.4021    0.0000 C   0  0  0  0  0  0  0  0  0  0  0  0
   14.5183  -12.5685    0.0000 C   0  0  0  0  0  0  0  0  0  0  0  0
   17.2120  -12.5685    0.0000 C   0  0  0  0  0  0  0  0  0  0  0  0
   15.1917  -13.7350    0.0000 C   0  0  0  0  0  0  0  0  0  0  0  0
   16.5386  -13.7350    0.0000 C   0  0  0  0  0  0  0  0  0  0  0  0
   12.4979   -9.0692    0.0000 C   0  0  0  0  0  0  0  0  0  0  0  0
   11.1511   -9.0692    0.0000 C   0  0  0  0  0  0  0  0  0  0  0  0
   13.1714   -7.9028    0.0000 C   0  0  0  0  0  0  0  0  0  0  0  0
   10.4776   -7.9028    0.0000 C   0  0  0  0  0  0  0  0  0  0  0  0
   12.4979   -6.7364    0.0000 C   0  0  0  0  0  0  0  0  0  0  0  0
   11.1511   -6.7364    0.0000 C   0  0  0  0  0  0  0  0  0  0  0  0
   14.5183   -7.9028    0.0000 O   0  0  0  0  0  0  0  0  0  0  0  0
   13.1714   -5.5699    0.0000 O   0  0  0  0  0  0  0  0  0  0  0  0
   10.4776   -5.5699    0.0000 O   0  0  0  0  0  0  0  0  0  0  0  0
  1  2  2  0
  4  3  2  0
  5  3  1  0
  6  4  1  0
  7  5  2  0
  8  6  2  0
  8  7  1  0
  2  3  1  0
 10  9  2  0
 11  9  1  0
 12 10  1  0
 13 11  2  0
 14 12  2  0
 14 13  1  0
  1  9  1  0
 11 15  1  0
 13 16  1  0
 14 17  1  0
M  END
>  <Name>  (185) 
4-((E)-Phenyldiazenyl)-1&2&3-benzenetriol

>  <logK_Lu_z=3.0_T=25_I=1.0>  (185) 
8.6

$$$$

     RDKit          2D

 11 11  0  0  0  0  0  0  0  0999 V2000
   16.7532   -9.4582    0.0000 C   0  0  0  0  0  0  0  0  0  0  0  0
   16.7532  -10.7882    0.0000 C   0  0  0  0  0  0  0  0  0  0  0  0
   15.6014   -8.7932    0.0000 C   0  0  0  0  0  0  0  0  0  0  0  0
   15.6014  -11.4532    0.0000 C   0  0  0  0  0  0  0  0  0  0  0  0
   14.4496   -9.4582    0.0000 C   0  0  0  0  0  0  0  0  0  0  0  0
   14.4496  -10.7882    0.0000 C   0  0  0  0  0  0  0  0  0  0  0  0
   15.6014   -7.4632    0.0000 N   0  0  0  0  0  0  0  0  0  0  0  0
   17.9050  -11.4532    0.0000 O   0  0  0  0  0  0  0  0  0  0  0  0
   15.6014  -12.7832    0.0000 O   0  0  0  0  0  0  0  0  0  0  0  0
   16.7532   -6.7982    0.0000 O   0  0  0  0  0  0  0  0  0  0  0  0
   14.4496   -6.7982    0.0000 O   0  0  0  0  0  0  0  0  0  0  0  0
  2  1  2  0
  3  1  1  0
  4  2  1  0
  5  3  2  0
  6  4  2  0
  6  5  1  0
  3  7  1  0
  2  8  1  0
  4  9  1  0
  7 10  2  0
  7 11  1  0
M  CHG  1   7   1
M  END
>  <Name>  (186) 
4-Nitrocatechol

>  <logK_Lu_z=3.0_T=25_I=1.0>  (186) 
9.2

$$$$

     RDKit          2D

 14 14  0  0  0  0  0  0  0  0999 V2000
   15.9036  -13.9931    0.0000 C   0  0  0  0  0  0  0  0  0  0  0  0
   15.9036  -15.3231    0.0000 C   0  0  0  0  0  0  0  0  0  0  0  0
   14.7518  -13.3281    0.0000 C   0  0  0  0  0  0  0  0  0  0  0  0
   14.7518  -15.9881    0.0000 C   0  0  0  0  0  0  0  0  0  0  0  0
   13.5999  -13.9931    0.0000 C   0  0  0  0  0  0  0  0  0  0  0  0
   13.5999  -15.3231    0.0000 C   0  0  0  0  0  0  0  0  0  0  0  0
   17.0554  -13.3281    0.0000 C   0  0  0  0  0  0  0  0  0  0  0  0
   12.4481  -13.3281    0.0000 S   0  0  0  0  0  0  0  0  0  0  0  0
   18.2072  -13.9931    0.0000 O   0  0  0  0  0  0  0  0  0  0  0  0
   17.0554  -11.9981    0.0000 O   0  0  0  0  0  0  0  0  0  0  0  0
   17.0554  -15.9881    0.0000 O   0  0  0  0  0  0  0  0  0  0  0  0
   13.1131  -12.1763    0.0000 O   0  0  0  0  0  0  0  0  0  0  0  0
   11.7831  -14.4799    0.0000 O   0  0  0  0  0  0  0  0  0  0  0  0
   11.2963  -12.6631    0.0000 O   0  0  0  0  0  0  0  0  0  0  0  0
  2  1  2  0
  3  1  1  0
  4  2  1  0
  5  3  2  0
  6  4  2  0
  6  5  1  0
  1  7  1  0
  5  8  1  0
  7  9  2  0
  7 10  1  0
  2 11  1  0
  8 12  2  0
  8 13  2  0
  8 14  1  0
M  END
>  <Name>  (187) 
5-Sulfosalicylic

>  <logK_Lu_z=3.0_T=25_I=1.0>  (187) 
8.43

$$$$

     RDKit          2D

 11 12  0  0  0  0  0  0  0  0999 V2000
   11.7117   -8.3005    0.0000 C   0  0  0  0  0  0  0  0  0  0  0  0
   11.7117   -9.6305    0.0000 C   0  0  0  0  0  0  0  0  0  0  0  0
   10.5599   -7.6355    0.0000 C   0  0  0  0  0  0  0  0  0  0  0  0
   10.5599  -10.2955    0.0000 N   0  0  0  0  0  0  0  0  0  0  0  0
    9.4081   -8.3005    0.0000 C   0  0  0  0  0  0  0  0  0  0  0  0
    9.4081   -9.6305    0.0000 C   0  0  0  0  0  0  0  0  0  0  0  0
   14.0154   -8.3005    0.0000 C   0  0  0  0  0  0  0  0  0  0  0  0
   14.0154   -9.6305    0.0000 C   0  0  0  0  0  0  0  0  0  0  0  0
   12.8635   -7.6355    0.0000 C   0  0  0  0  0  0  0  0  0  0  0  0
   12.8635  -10.2955    0.0000 C   0  0  0  0  0  0  0  0  0  0  0  0
   12.8635  -11.6255    0.0000 O   0  0  0  0  0  0  0  0  0  0  0  0
  3  1  2  0
  4  2  2  0
  5  3  1  0
  6  4  1  0
  6  5  2  0
  8  7  1  0
  9  7  2  0
 10  8  2  0
  1  9  1  0
  2 10  1  0
  2  1  1  0
 10 11  1  0
M  END
>  <Name>  (188) 
8-quinolinol

>  <logK_Lu_z=3.0_T=25_I=1.0>  (188) 
7.74

$$$$

     RDKit          2D

 23 23  0  0  0  0  0  0  0  0999 V2000
   16.1095  -23.9210    0.0000 C   0  0  0  0  0  0  0  0  0  0  0  0
   14.1072  -23.9211    0.0000 C   0  0  0  0  0  0  0  0  0  0  0  0
   19.8706  -19.7137    0.0000 C   0  0  0  0  0  0  0  0  0  0  0  0
   19.2627  -21.6035    0.0000 C   0  0  0  0  0  0  0  0  0  0  0  0
   17.9257  -23.1057    0.0000 O   0  0  0  0  0  0  0  0  0  0  0  0
   10.3291  -19.7376    0.0000 C   0  0  0  0  0  0  0  0  0  0  0  0
   10.9477  -21.6450    0.0000 C   0  0  0  0  0  0  0  0  0  0  0  0
   12.2907  -23.1270    0.0000 O   0  0  0  0  0  0  0  0  0  0  0  0
   17.0290  -14.8374    0.0000 C   0  0  0  0  0  0  0  0  0  0  0  0
   18.6558  -16.0047    0.0000 C   0  0  0  0  0  0  0  0  0  0  0  0
   11.5204  -16.0337    0.0000 C   0  0  0  0  0  0  0  0  0  0  0  0
   13.1351  -14.8447    0.0000 C   0  0  0  0  0  0  0  0  0  0  0  0
   15.0902  -14.4235    0.0000 O   0  0  0  0  0  0  0  0  0  0  0  0
   10.5312  -17.7591    0.0000 N   0  0  0  0  0  0  0  0  0  0  0  0
   19.6561  -17.7260    0.0000 N   0  0  0  0  0  0  0  0  0  0  0  0
   21.5632  -17.1079    0.0000 C   0  0  0  0  0  0  0  0  0  0  0  0
   23.0526  -18.4408    0.0000 C   0  0  0  0  0  0  0  0  0  0  0  0
    8.6279  -17.1469    0.0000 C   0  0  0  0  0  0  0  0  0  0  0  0
    7.1500  -18.4770    0.0000 C   0  0  0  0  0  0  0  0  0  0  0  0
    7.5710  -20.4327    0.0000 O   0  0  0  0  0  0  0  0  0  0  0  0
    5.2473  -17.8650    0.0000 O   0  0  0  0  0  0  0  0  0  0  0  0
   22.6346  -20.3923    0.0000 O   0  0  0  0  0  0  0  0  0  0  0  0
   24.9465  -17.8178    0.0000 O   0  0  0  0  0  0  0  0  0  0  0  0
  1  2  1  0
  3  4  1  0
  4  5  1  0
  1  5  1  0
  6  7  1  0
  7  8  1  0
  2  8  1  0
  9 10  1  0
 11 12  1  0
 12 13  1  0
  9 13  1  0
 11 14  1  0
  6 14  1  0
 10 15  1  0
  3 15  1  0
 15 16  1  0
 16 17  1  0
 14 18  1  0
 18 19  1  0
 19 20  1  0
 19 21  2  0
 17 22  2  0
 17 23  1  0
M  END
>  <Name>  (189) 
A2-15C5-8

>  <logK_Lu_z=3.0_T=25_I=1.0>  (189) 
10.33

$$$$

     RDKit          2D

 26 26  0  0  0  0  0  0  0  0999 V2000
   15.5525  -13.8429    0.0000 C   0  0  0  0  0  0  0  0  0  0  0  0
   14.0086  -14.7475    0.0000 C   0  0  0  0  0  0  0  0  0  0  0  0
   21.9873  -11.4892    0.0000 C   0  0  0  0  0  0  0  0  0  0  0  0
   22.5768  -13.1841    0.0000 C   0  0  0  0  0  0  0  0  0  0  0  0
   18.6566  -12.0430    0.0000 C   0  0  0  0  0  0  0  0  0  0  0  0
   18.6693  -13.8464    0.0000 C   0  0  0  0  0  0  0  0  0  0  0  0
   18.6540   -8.4710    0.0000 C   0  0  0  0  0  0  0  0  0  0  0  0
   20.2026   -9.3651    0.0000 C   0  0  0  0  0  0  0  0  0  0  0  0
   20.2247  -11.1524    0.0000 N   0  0  0  0  0  0  0  0  0  0  0  0
    9.1399   -9.0218    0.0000 C   0  0  0  0  0  0  0  0  0  0  0  0
    7.9644  -10.3777    0.0000 C   0  0  0  0  0  0  0  0  0  0  0  0
   10.8905  -11.1512    0.0000 C   0  0  0  0  0  0  0  0  0  0  0  0
   12.4633  -12.0593    0.0000 C   0  0  0  0  0  0  0  0  0  0  0  0
   12.4458   -8.4573    0.0000 C   0  0  0  0  0  0  0  0  0  0  0  0
   12.4573   -6.6679    0.0000 C   0  0  0  0  0  0  0  0  0  0  0  0
   10.9019   -9.3619    0.0000 N   0  0  0  0  0  0  0  0  0  0  0  0
   15.5648   -6.6875    0.0000 C   0  0  0  0  0  0  0  0  0  0  0  0
   17.1087   -5.7829    0.0000 C   0  0  0  0  0  0  0  0  0  0  0  0
   13.9919   -5.7794    0.0000 O   0  0  0  0  0  0  0  0  0  0  0  0
   18.6654   -6.6816    0.0000 O   0  0  0  0  0  0  0  0  0  0  0  0
   17.1012  -14.7370    0.0000 O   0  0  0  0  0  0  0  0  0  0  0  0
   12.4519  -13.8487    0.0000 O   0  0  0  0  0  0  0  0  0  0  0  0
   24.3394  -13.5210    0.0000 O   0  0  0  0  0  0  0  0  0  0  0  0
   21.4038  -14.5421    0.0000 O   0  0  0  0  0  0  0  0  0  0  0  0
    6.2025  -10.0376    0.0000 O   0  0  0  0  0  0  0  0  0  0  0  0
    8.5509  -12.0736    0.0000 O   0  0  0  0  0  0  0  0  0  0  0  0
  1  2  1  0
  3  4  1  0
  5  6  1  0
  7  8  1  0
  8  9  1  0
  5  9  1  0
  3  9  1  0
 10 11  1  0
 12 13  1  0
 14 15  1  0
 14 16  1  0
 12 16  1  0
 10 16  1  0
 17 18  1  0
 17 19  1  0
 15 19  1  0
 18 20  1  0
  7 20  1  0
  6 21  1  0
  1 21  1  0
  2 22  1  0
 13 22  1  0
  4 23  1  0
  4 24  2  0
 11 25  1  0
 11 26  2  0
M  END
>  <Name>  (190) 
A2-18C6-17

>  <logK_Lu_z=3.0_T=25_I=1.0>  (190) 
10.84

$$$$

     RDKit          2D

 22 22  0  0  0  0  0  0  0  0999 V2000
   14.2943  -14.1542    0.0000 C   0  0  0  0  0  0  0  0  0  0  0  0
   12.9444  -14.9451    0.0000 C   0  0  0  0  0  0  0  0  0  0  0  0
   17.0082  -12.5805    0.0000 C   0  0  0  0  0  0  0  0  0  0  0  0
   17.0194  -14.1572    0.0000 C   0  0  0  0  0  0  0  0  0  0  0  0
   17.0060   -9.4574    0.0000 C   0  0  0  0  0  0  0  0  0  0  0  0
   18.3600  -10.2392    0.0000 C   0  0  0  0  0  0  0  0  0  0  0  0
   18.3793  -11.8018    0.0000 N   0  0  0  0  0  0  0  0  0  0  0  0
   14.3050   -7.8980    0.0000 C   0  0  0  0  0  0  0  0  0  0  0  0
   15.6549   -7.1071    0.0000 C   0  0  0  0  0  0  0  0  0  0  0  0
   10.2181  -11.8008    0.0000 C   0  0  0  0  0  0  0  0  0  0  0  0
   11.5933  -12.5948    0.0000 C   0  0  0  0  0  0  0  0  0  0  0  0
   11.5781   -9.4454    0.0000 C   0  0  0  0  0  0  0  0  0  0  0  0
   11.5881   -7.8809    0.0000 C   0  0  0  0  0  0  0  0  0  0  0  0
   10.2281  -10.2363    0.0000 N   0  0  0  0  0  0  0  0  0  0  0  0
   12.9298   -7.1041    0.0000 O   0  0  0  0  0  0  0  0  0  0  0  0
   17.0160   -7.8929    0.0000 O   0  0  0  0  0  0  0  0  0  0  0  0
   15.6483  -14.9359    0.0000 O   0  0  0  0  0  0  0  0  0  0  0  0
   11.5833  -14.1593    0.0000 O   0  0  0  0  0  0  0  0  0  0  0  0
   19.9204  -12.0963    0.0000 C   0  0  0  0  0  0  0  0  0  0  0  0
   20.9460  -10.9090    0.0000 C   0  0  0  0  0  0  0  0  0  0  0  0
   20.4305   -9.4271    0.0000 O   0  0  0  0  0  0  0  0  0  0  0  0
   22.4870  -11.2035    0.0000 O   0  0  0  0  0  0  0  0  0  0  0  0
  1  2  1  0
  3  4  1  0
  5  6  1  0
  6  7  1  0
  3  7  1  0
  8  9  1  0
 10 11  1  0
 12 13  1  0
 12 14  1  0
 10 14  1  0
 13 15  1  0
  8 15  1  0
  9 16  1  0
  5 16  1  0
  4 17  1  0
  1 17  1  0
  2 18  1  0
 11 18  1  0
  7 19  1  0
 19 20  1  0
 20 21  1  0
 20 22  2  0
M  END
>  <Name>  (191) 
A2-18C6-2

>  <logK_Lu_z=3.0_T=25_I=1.0>  (191) 
6.01

$$$$

     RDKit          2D

 28 28  0  0  0  0  0  0  0  0999 V2000
   15.0695  -12.6647    0.0000 C   0  0  0  0  0  0  0  0  0  0  0  0
   13.8947  -13.3530    0.0000 C   0  0  0  0  0  0  0  0  0  0  0  0
   17.4314  -11.2951    0.0000 C   0  0  0  0  0  0  0  0  0  0  0  0
   17.4411  -12.6673    0.0000 C   0  0  0  0  0  0  0  0  0  0  0  0
   17.4294   -8.5772    0.0000 C   0  0  0  0  0  0  0  0  0  0  0  0
   18.6078   -9.2575    0.0000 C   0  0  0  0  0  0  0  0  0  0  0  0
   18.6246  -10.6174    0.0000 N   0  0  0  0  0  0  0  0  0  0  0  0
   15.0788   -7.2201    0.0000 C   0  0  0  0  0  0  0  0  0  0  0  0
   16.2536   -6.5317    0.0000 C   0  0  0  0  0  0  0  0  0  0  0  0
   11.5221  -10.6166    0.0000 C   0  0  0  0  0  0  0  0  0  0  0  0
   12.7189  -11.3075    0.0000 C   0  0  0  0  0  0  0  0  0  0  0  0
   12.7143   -7.2051    0.0000 C   0  0  0  0  0  0  0  0  0  0  0  0
   12.7056   -8.5667    0.0000 C   0  0  0  0  0  0  0  0  0  0  0  0
   11.5308   -9.2550    0.0000 N   0  0  0  0  0  0  0  0  0  0  0  0
   13.8820   -6.5291    0.0000 O   0  0  0  0  0  0  0  0  0  0  0  0
   17.4381   -7.2156    0.0000 O   0  0  0  0  0  0  0  0  0  0  0  0
   16.2479  -13.3450    0.0000 O   0  0  0  0  0  0  0  0  0  0  0  0
   12.7102  -12.6691    0.0000 O   0  0  0  0  0  0  0  0  0  0  0  0
   19.9658  -10.8737    0.0000 C   0  0  0  0  0  0  0  0  0  0  0  0
   20.4144  -12.1634    0.0000 C   0  0  0  0  0  0  0  0  0  0  0  0
   21.7555  -12.4197    0.0000 C   0  0  0  0  0  0  0  0  0  0  0  0
   10.1901   -8.9962    0.0000 C   0  0  0  0  0  0  0  0  0  0  0  0
    9.2957  -10.0279    0.0000 C   0  0  0  0  0  0  0  0  0  0  0  0
    7.9550   -9.7692    0.0000 C   0  0  0  0  0  0  0  0  0  0  0  0
   22.6481  -11.3864    0.0000 O   0  0  0  0  0  0  0  0  0  0  0  0
   22.2042  -13.7093    0.0000 O   0  0  0  0  0  0  0  0  0  0  0  0
    7.5088   -8.4787    0.0000 O   0  0  0  0  0  0  0  0  0  0  0  0
    7.0606  -10.8009    0.0000 O   0  0  0  0  0  0  0  0  0  0  0  0
  1  2  1  0
  3  4  1  0
  5  6  1  0
  6  7  1  0
  3  7  1  0
  8  9  1  0
 10 11  1  0
 12 13  1  0
 13 14  1  0
 10 14  1  0
 12 15  1  0
  8 15  1  0
  9 16  1  0
  5 16  1  0
  4 17  1  0
  1 17  1  0
  2 18  1  0
 11 18  1  0
  7 19  1  0
 19 20  1  0
 20 21  1  0
 14 22  1  0
 22 23  1  0
 23 24  1  0
 21 25  1  0
 21 26  2  0
 24 27  2  0
 24 28  1  0
M  END
>  <Name>  (192) 
A2-18C6-22

>  <logK_Lu_z=3.0_T=25_I=1.0>  (192) 
6.0

$$$$

     RDKit          2D

 21 21  0  0  0  0  0  0  0  0999 V2000
    8.5663  -10.5633    0.0000 C   0  0  0  0  0  0  0  0  0  0  0  0
   10.2013  -12.1589    0.0000 C   0  0  0  0  0  0  0  0  0  0  0  0
   12.5013   -6.0591    0.0000 C   0  0  0  0  0  0  0  0  0  0  0  0
   10.2954   -6.5578    0.0000 C   0  0  0  0  0  0  0  0  0  0  0  0
   15.2437   -9.3640    0.0000 C   0  0  0  0  0  0  0  0  0  0  0  0
   14.4581  -11.4886    0.0000 C   0  0  0  0  0  0  0  0  0  0  0  0
   14.6630   -7.0739    0.0000 N   0  0  0  0  0  0  0  0  0  0  0  0
    8.5663   -8.1427    0.0000 N   0  0  0  0  0  0  0  0  0  0  0  0
   12.4542  -12.7828    0.0000 N   0  0  0  0  0  0  0  0  0  0  0  0
   16.5721   -5.4738    0.0000 C   0  0  0  0  0  0  0  0  0  0  0  0
   18.8758   -6.2822    0.0000 C   0  0  0  0  0  0  0  0  0  0  0  0
    6.2383   -7.2440    0.0000 C   0  0  0  0  0  0  0  0  0  0  0  0
    5.8223   -4.8431    0.0000 C   0  0  0  0  0  0  0  0  0  0  0  0
   12.9324  -15.2383    0.0000 C   0  0  0  0  0  0  0  0  0  0  0  0
   11.1129  -16.8597    0.0000 C   0  0  0  0  0  0  0  0  0  0  0  0
   19.4724   -8.6611    0.0000 O   0  0  0  0  0  0  0  0  0  0  0  0
   20.7112   -4.6336    0.0000 O   0  0  0  0  0  0  0  0  0  0  0  0
    7.6144   -3.1693    0.0000 O   0  0  0  0  0  0  0  0  0  0  0  0
    3.4852   -4.0521    0.0000 O   0  0  0  0  0  0  0  0  0  0  0  0
    8.7454  -16.2236    0.0000 O   0  0  0  0  0  0  0  0  0  0  0  0
   11.6663  -19.2644    0.0000 O   0  0  0  0  0  0  0  0  0  0  0  0
  1  2  1  0
  3  4  1  0
  5  6  1  0
  5  7  1  0
  3  7  1  0
  4  8  1  0
  1  8  1  0
  2  9  1  0
  6  9  1  0
  7 10  1  0
 10 11  1  0
  8 12  1  0
 12 13  1  0
  9 14  1  0
 14 15  1  0
 11 16  1  0
 11 17  2  0
 13 18  1  0
 13 19  2  0
 15 20  2  0
 15 21  1  0
M  END
>  <Name>  (193) 
A3-9C3-5

>  <logK_Lu_z=3.0_T=25_I=1.0>  (193) 
15.95

$$$$

     RDKit          2D

  6  5  0  0  0  0  0  0  0  0999 V2000
   11.2678   -7.6746    0.0000 C   0  0  0  0  0  0  0  0  0  0  0  0
   11.9714   -8.8934    0.0000 C   0  0  0  0  0  0  0  0  0  0  0  0
   13.3787   -8.8934    0.0000 C   0  0  0  0  0  0  0  0  0  0  0  0
   14.0824   -7.6746    0.0000 O   0  0  0  0  0  0  0  0  0  0  0  0
   14.0824  -10.1121    0.0000 O   0  0  0  0  0  0  0  0  0  0  0  0
   11.2678  -10.1121    0.0000 N   0  0  0  0  0  0  0  0  0  0  0  0
  1  2  1  0
  2  3  1  0
  3  4  1  0
  3  5  2  0
  2  6  1  0
M  END
>  <Name>  (194) 
Alanine

>  <logK_Lu_z=3.0_T=25_I=1.0>  (194) 
4.8

$$$$

     RDKit          2D

 10  9  0  0  0  0  0  0  0  0999 V2000
    8.7825   -7.4853    0.0000 C   0  0  0  0  0  0  0  0  0  0  0  0
   10.3159   -8.3706    0.0000 C   0  0  0  0  0  0  0  0  0  0  0  0
   11.8492   -7.4853    0.0000 C   0  0  0  0  0  0  0  0  0  0  0  0
   13.3826   -8.3706    0.0000 C   0  0  0  0  0  0  0  0  0  0  0  0
   14.9160   -7.4853    0.0000 O   0  0  0  0  0  0  0  0  0  0  0  0
   16.4493   -8.3706    0.0000 C   0  0  0  0  0  0  0  0  0  0  0  0
   17.9827   -7.4853    0.0000 C   0  0  0  0  0  0  0  0  0  0  0  0
   19.5160   -8.3706    0.0000 C   0  0  0  0  0  0  0  0  0  0  0  0
   13.3826  -10.1412    0.0000 O   0  0  0  0  0  0  0  0  0  0  0  0
   10.3159  -10.1412    0.0000 O   0  0  0  0  0  0  0  0  0  0  0  0
  1  2  1  0
  2  3  1  0
  3  4  1  0
  4  5  1  0
  5  6  1  0
  6  7  1  0
  7  8  2  0
  4  9  2  0
  2 10  2  0
M  END
>  <Name>  (195) 
Allyl%Acetoacetate

>  <logK_Lu_z=3.0_T=25_I=1.0>  (195) 
8.94

$$$$

     RDKit          2D

  9  8  0  0  0  0  0  0  0  0999 V2000
    9.6957  -11.3271    0.0000 N   0  0  0  0  0  0  0  0  0  0  0  0
    9.6957   -9.7198    0.0000 C   0  0  0  0  0  0  0  0  0  0  0  0
   11.0876   -8.9162    0.0000 C   0  0  0  0  0  0  0  0  0  0  0  0
   12.4796   -9.7198    0.0000 C   0  0  0  0  0  0  0  0  0  0  0  0
    8.3037   -8.9162    0.0000 C   0  0  0  0  0  0  0  0  0  0  0  0
   12.4796  -11.3271    0.0000 O   0  0  0  0  0  0  0  0  0  0  0  0
   13.8715   -8.9162    0.0000 O   0  0  0  0  0  0  0  0  0  0  0  0
    8.3037   -7.3089    0.0000 O   0  0  0  0  0  0  0  0  0  0  0  0
    6.9117   -9.7198    0.0000 O   0  0  0  0  0  0  0  0  0  0  0  0
  1  2  1  0
  2  3  1  0
  3  4  1  0
  2  5  1  0
  4  6  2  0
  4  7  1  0
  5  8  2  0
  5  9  1  0
M  END
>  <Name>  (196) 
Aspartic

>  <logK_Lu_z=3.0_T=25_I=1.0>  (196) 
6.07

$$$$

     RDKit          2D

 31 33  0  0  1  0  0  0  0  0999 V2000
   14.6483   -9.9926    0.0000 C   0  0  0  0  0  0  0  0  0  0  0  0
   16.7572  -10.6761    0.0000 C   0  0  0  0  0  0  0  0  0  0  0  0
   17.4407  -12.8013    0.0000 C   0  0  0  0  0  0  0  0  0  0  0  0
   19.6692  -12.8013    0.0000 C   0  0  0  0  0  0  0  0  0  0  0  0
   20.3673  -10.6761    0.0000 C   0  0  0  0  0  0  0  0  0  0  0  0
   18.5545   -9.3694    0.0000 O   0  0  0  0  0  0  0  0  0  0  0  0
   16.1331  -14.5987    0.0000 O   0  0  0  0  0  0  0  0  0  0  0  0
   20.9914  -14.5987    0.0000 O   0  0  0  0  0  0  0  0  0  0  0  0
   22.4771   -9.9926    0.0000 N   0  0  0  0  0  0  0  0  0  0  0  0
   24.2899  -11.3001    0.0000 C   0  0  0  0  0  0  0  0  0  0  0  0
   26.0872   -9.9926    0.0000 N   0  0  0  0  0  0  0  0  0  0  0  0
   23.1752   -7.8845    0.0000 C   0  0  0  0  0  0  0  0  0  0  0  0
   25.4038   -7.8845    0.0000 C   0  0  0  0  0  0  0  0  0  0  0  0
   26.5185   -5.9529    0.0000 C   0  0  0  0  0  0  0  0  0  0  0  0
   28.7462   -5.9529    0.0000 N   0  0  0  0  0  0  0  0  0  0  0  0
   25.4038   -4.0213    0.0000 N   0  0  0  0  0  0  0  0  0  0  0  0
   23.1752   -4.0213    0.0000 C   0  0  0  0  0  0  0  0  0  0  0  0
   22.0614   -5.9529    0.0000 N   0  0  0  0  0  0  0  0  0  0  0  0
   12.9990  -11.4783    0.0000 O   0  0  0  0  0  0  0  0  0  0  0  0
   10.8746  -10.7949    0.0000 P   0  0  0  0  0  0  0  0  0  0  0  0
    8.7648  -10.0968    0.0000 O   0  0  0  0  0  0  0  0  0  0  0  0
    7.1009  -11.5980    0.0000 P   0  0  0  0  0  0  0  0  0  0  0  0
    5.4517  -13.0837    0.0000 O   0  0  0  0  0  0  0  0  0  0  0  0
    3.3272  -12.4002    0.0000 P   0  0  0  0  0  0  0  0  0  0  0  0
    4.0107  -10.2749    0.0000 O   0  0  0  0  0  0  0  0  0  0  0  0
    2.6438  -14.5091    0.0000 O   0  0  0  0  0  0  0  0  0  0  0  0
    1.2028  -11.7013    0.0000 O   0  0  0  0  0  0  0  0  0  0  0  0
    5.6152   -9.9332    0.0000 O   0  0  0  0  0  0  0  0  0  0  0  0
    8.5866  -13.2464    0.0000 O   0  0  0  0  0  0  0  0  0  0  0  0
   10.1911  -12.9046    0.0000 O   0  0  0  0  0  0  0  0  0  0  0  0
   11.5727   -8.6868    0.0000 O   0  0  0  0  0  0  0  0  0  0  0  0
  2  1  1  1
  2  3  1  0
  3  4  1  0
  2  6  1  0
  5  6  1  0
  5  4  1  0
  3  7  1  0
  4  8  1  0
  5  9  1  1
  9 10  1  0
 10 11  2  0
  9 12  1  0
 12 13  2  0
 13 11  1  0
 13 14  1  0
 14 15  1  0
 14 16  2  0
 16 17  1  0
 17 18  2  0
 18 12  1  0
  1 19  1  0
 19 20  1  0
 20 21  1  0
 21 22  1  0
 22 23  1  0
 23 24  1  0
 24 25  1  0
 24 26  2  0
 24 27  1  0
 22 28  2  0
 22 29  1  0
 20 30  2  0
 20 31  1  0
M  END
>  <Name>  (197) 
ATP

>  <logK_Lu_z=3.0_T=25_I=1.0>  (197) 
6.34

$$$$

     RDKit          2D

 19 20  0  0  0  0  0  0  0  0999 V2000
   11.4473  -11.3073    0.0000 C   0  0  0  0  0  0  0  0  0  0  0  0
   11.4473   -9.0913    0.0000 C   0  0  0  0  0  0  0  0  0  0  0  0
    9.5282  -12.4154    0.0000 C   0  0  0  0  0  0  0  0  0  0  0  0
    9.5282   -7.9833    0.0000 C   0  0  0  0  0  0  0  0  0  0  0  0
    7.6090  -11.3073    0.0000 C   0  0  0  0  0  0  0  0  0  0  0  0
    7.6090   -9.0913    0.0000 C   0  0  0  0  0  0  0  0  0  0  0  0
   12.3487  -13.3318    0.0000 O   0  0  0  0  0  0  0  0  0  0  0  0
   12.3487   -7.0669    0.0000 O   0  0  0  0  0  0  0  0  0  0  0  0
   13.9955  -14.8146    0.0000 C   0  0  0  0  0  0  0  0  0  0  0  0
   16.1030  -15.4994    0.0000 C   0  0  0  0  0  0  0  0  0  0  0  0
   18.3069  -15.2678    0.0000 O   0  0  0  0  0  0  0  0  0  0  0  0
   20.2261  -14.1597    0.0000 C   0  0  0  0  0  0  0  0  0  0  0  0
   21.5286  -12.3669    0.0000 C   0  0  0  0  0  0  0  0  0  0  0  0
   21.9893  -10.1993    0.0000 O   0  0  0  0  0  0  0  0  0  0  0  0
   21.5286   -8.0317    0.0000 C   0  0  0  0  0  0  0  0  0  0  0  0
   20.2261   -6.2389    0.0000 C   0  0  0  0  0  0  0  0  0  0  0  0
   18.3069   -5.1309    0.0000 O   0  0  0  0  0  0  0  0  0  0  0  0
   16.1030   -4.8993    0.0000 C   0  0  0  0  0  0  0  0  0  0  0  0
   13.9955   -5.5841    0.0000 C   0  0  0  0  0  0  0  0  0  0  0  0
  2  1  1  0
  3  1  2  0
  4  2  2  0
  5  3  1  0
  6  4  1  0
  6  5  2  0
  1  7  1  0
  2  8  1  0
  7  9  1  0
  9 10  1  0
 10 11  1  0
 11 12  1  0
 12 13  1  0
 13 14  1  0
 14 15  1  0
 15 16  1  0
 16 17  1  0
 17 18  1  0
 18 19  1  0
 19  8  1  0
M  END
>  <Name>  (198) 
B15C5-1

>  <logK_Lu_z=3.0_T=25_I=1.0>  (198) 
2.41

$$$$

     RDKit          2D

 22 23  0  0  0  0  0  0  0  0999 V2000
   12.2957  -12.7706    0.0000 C   0  0  0  0  0  0  0  0  0  0  0  0
   11.6307  -11.6188    0.0000 C   0  0  0  0  0  0  0  0  0  0  0  0
   11.6307  -13.9224    0.0000 C   0  0  0  0  0  0  0  0  0  0  0  0
   10.3007  -11.6188    0.0000 C   0  0  0  0  0  0  0  0  0  0  0  0
   10.3007  -13.9224    0.0000 C   0  0  0  0  0  0  0  0  0  0  0  0
    9.6357  -12.7706    0.0000 C   0  0  0  0  0  0  0  0  0  0  0  0
   13.3717  -13.5523    0.0000 O   0  0  0  0  0  0  0  0  0  0  0  0
   14.6727  -13.8289    0.0000 C   0  0  0  0  0  0  0  0  0  0  0  0
   15.9736  -13.5523    0.0000 C   0  0  0  0  0  0  0  0  0  0  0  0
   17.0496  -12.7706    0.0000 O   0  0  0  0  0  0  0  0  0  0  0  0
   17.7146  -11.6188    0.0000 C   0  0  0  0  0  0  0  0  0  0  0  0
   17.8536  -10.2961    0.0000 C   0  0  0  0  0  0  0  0  0  0  0  0
   17.4426   -9.0312    0.0000 O   0  0  0  0  0  0  0  0  0  0  0  0
   16.5527   -8.0428    0.0000 C   0  0  0  0  0  0  0  0  0  0  0  0
   15.3377   -7.5018    0.0000 C   0  0  0  0  0  0  0  0  0  0  0  0
   14.0077   -7.5018    0.0000 O   0  0  0  0  0  0  0  0  0  0  0  0
   12.7926   -8.0428    0.0000 C   0  0  0  0  0  0  0  0  0  0  0  0
   11.9027   -9.0312    0.0000 C   0  0  0  0  0  0  0  0  0  0  0  0
   11.4917  -10.2961    0.0000 O   0  0  0  0  0  0  0  0  0  0  0  0
    8.3057  -12.7706    0.0000 N   0  0  0  0  0  0  0  0  0  0  0  0
    7.6407  -13.9224    0.0000 O   0  0  0  0  0  0  0  0  0  0  0  0
    7.6407  -11.6188    0.0000 O   0  0  0  0  0  0  0  0  0  0  0  0
  2  1  1  0
  3  1  2  0
  4  2  2  0
  5  3  1  0
  6  4  1  0
  6  5  2  0
  1  7  1  0
  7  8  1  0
  8  9  1  0
  9 10  1  0
 10 11  1  0
 11 12  1  0
 12 13  1  0
 13 14  1  0
 14 15  1  0
 15 16  1  0
 16 17  1  0
 17 18  1  0
 18 19  1  0
 19  2  1  0
  6 20  1  0
 20 21  1  0
 20 22  2  0
M  CHG  2  20   1  21  -1
M  END
>  <Name>  (199) 
B15C5-4

>  <logK_Lu_z=3.0_T=25_I=1.0>  (199) 
3.6

$$$$

     RDKit          2D

 23 24  0  0  0  0  0  0  0  0999 V2000
   20.2719  -11.2890    0.0000 O   0  0  0  0  0  0  0  0  0  0  0  0
   14.4855  -13.1691    0.0000 O   0  0  0  0  0  0  0  0  0  0  0  0
   14.4855   -9.4088    0.0000 O   0  0  0  0  0  0  0  0  0  0  0  0
   13.9445  -10.6239    0.0000 C   0  0  0  0  0  0  0  0  0  0  0  0
   13.9445  -11.9540    0.0000 C   0  0  0  0  0  0  0  0  0  0  0  0
   12.7926   -9.9589    0.0000 C   0  0  0  0  0  0  0  0  0  0  0  0
   12.7926  -12.6191    0.0000 C   0  0  0  0  0  0  0  0  0  0  0  0
   11.6407  -10.6239    0.0000 C   0  0  0  0  0  0  0  0  0  0  0  0
   11.6407  -11.9540    0.0000 C   0  0  0  0  0  0  0  0  0  0  0  0
   15.4739  -14.0591    0.0000 C   0  0  0  0  0  0  0  0  0  0  0  0
   16.7389  -14.4701    0.0000 C   0  0  0  0  0  0  0  0  0  0  0  0
   18.0617  -14.3311    0.0000 O   0  0  0  0  0  0  0  0  0  0  0  0
   19.2136  -13.6660    0.0000 C   0  0  0  0  0  0  0  0  0  0  0  0
   19.9954  -12.5900    0.0000 C   0  0  0  0  0  0  0  0  0  0  0  0
   19.9954   -9.9880    0.0000 C   0  0  0  0  0  0  0  0  0  0  0  0
   19.2136   -8.9119    0.0000 C   0  0  0  0  0  0  0  0  0  0  0  0
   18.0617   -8.2469    0.0000 O   0  0  0  0  0  0  0  0  0  0  0  0
   16.7389   -8.1078    0.0000 C   0  0  0  0  0  0  0  0  0  0  0  0
   15.4739   -8.5188    0.0000 C   0  0  0  0  0  0  0  0  0  0  0  0
   10.4888  -12.6191    0.0000 C   0  0  0  0  0  0  0  0  0  0  0  0
    9.3369  -11.9540    0.0000 C   0  0  0  0  0  0  0  0  0  0  0  0
    8.1850  -12.6191    0.0000 C   0  0  0  0  0  0  0  0  0  0  0  0
    7.0332  -11.9540    0.0000 C   0  0  0  0  0  0  0  0  0  0  0  0
  5  4  2  0
  6  4  1  0
  7  5  1  0
  8  6  2  0
  9  7  2  0
  9  8  1  0
  3  4  1  0
  2  5  1  0
  2 10  1  0
 10 11  1  0
 11 12  1  0
 12 13  1  0
 13 14  1  0
  1 14  1  0
  1 15  1  0
 15 16  1  0
 16 17  1  0
 17 18  1  0
 18 19  1  0
 19  3  1  0
  9 20  1  0
 20 21  1  0
 21 22  1  0
 22 23  1  0
M  END
>  <Name>  (200) 
B15C5-7

>  <logK_Lu_z=3.0_T=25_I=1.0>  (200) 
2.81

$$$$

     RDKit          2D

 24 24  0  0  0  0  0  0  0  0999 V2000
   12.1578  -13.8878    0.0000 N   0  0  0  0  0  0  0  0  0  0  0  0
   11.5286  -12.7844    0.0000 N   0  0  0  0  0  0  0  0  0  0  0  0
   11.7397  -11.5111    0.0000 C   0  0  0  0  0  0  0  0  0  0  0  0
   10.6700  -10.6731    0.0000 C   0  0  0  0  0  0  0  0  0  0  0  0
   12.8590  -10.8050    0.0000 C   0  0  0  0  0  0  0  0  0  0  0  0
   10.6916   -9.3532    0.0000 C   0  0  0  0  0  0  0  0  0  0  0  0
   14.0519  -11.4391    0.0000 C   0  0  0  0  0  0  0  0  0  0  0  0
    9.4480  -11.2462    0.0000 O   0  0  0  0  0  0  0  0  0  0  0  0
   13.0755   -9.5174    0.0000 O   0  0  0  0  0  0  0  0  0  0  0  0
   16.2060  -11.9850    0.0000 N   0  0  0  0  0  0  0  0  0  0  0  0
   17.5194  -11.9505    0.0000 N   0  0  0  0  0  0  0  0  0  0  0  0
   18.1748  -10.7917    0.0000 C   0  0  0  0  0  0  0  0  0  0  0  0
   19.5037  -10.8364    0.0000 C   0  0  0  0  0  0  0  0  0  0  0  0
   17.5319   -9.6337    0.0000 C   0  0  0  0  0  0  0  0  0  0  0  0
   20.1666  -11.9846    0.0000 C   0  0  0  0  0  0  0  0  0  0  0  0
   18.1914   -8.4788    0.0000 C   0  0  0  0  0  0  0  0  0  0  0  0
   20.1966   -9.7004    0.0000 O   0  0  0  0  0  0  0  0  0  0  0  0
   16.2045   -9.5773    0.0000 O   0  0  0  0  0  0  0  0  0  0  0  0
   15.5127  -13.1100    0.0000 C   0  0  0  0  0  0  0  0  0  0  0  0
   16.1317  -14.2907    0.0000 C   0  0  0  0  0  0  0  0  0  0  0  0
   14.2126  -13.1100    0.0000 C   0  0  0  0  0  0  0  0  0  0  0  0
   15.3922  -15.3971    0.0000 C   0  0  0  0  0  0  0  0  0  0  0  0
   13.4378  -14.1592    0.0000 C   0  0  0  0  0  0  0  0  0  0  0  0
   14.0617  -15.3274    0.0000 C   0  0  0  0  0  0  0  0  0  0  0  0
  1  2  2  0
  2  3  1  0
  3  4  1  0
  3  5  2  0
  4  6  1  0
  5  7  1  0
  4  8  2  0
  5  9  1  0
 10 11  2  0
 11 12  1  0
 12 13  2  0
 12 14  1  0
 13 15  1  0
 14 16  1  0
 13 17  1  0
 14 18  2  0
 20 19  2  0
 21 19  1  0
 22 20  1  0
 23 21  2  0
 24 22  2  0
 24 23  1  0
 10 19  1  0
  1 23  1  0
M  END
>  <Name>  (201) 
Bisazo-diketone-meta-methyl

>  <logK_Lu_z=3.0_T=25_I=1.0>  (201) 
6.86

$$$$

     RDKit          2D

 34 36  0  0  0  0  0  0  0  0999 V2000
   13.5487  -13.4810    0.0000 N   0  0  0  0  0  0  0  0  0  0  0  0
   12.8054  -12.3763    0.0000 N   0  0  0  0  0  0  0  0  0  0  0  0
   13.2033  -11.0975    0.0000 C   0  0  0  0  0  0  0  0  0  0  0  0
   14.4965  -10.7193    0.0000 C   0  0  0  0  0  0  0  0  0  0  0  0
   12.5914   -9.9290    0.0000 C   0  0  0  0  0  0  0  0  0  0  0  0
   15.7279  -10.3353    0.0000 C   0  0  0  0  0  0  0  0  0  0  0  0
   14.4318  -11.9705    0.0000 O   0  0  0  0  0  0  0  0  0  0  0  0
   13.2243   -8.7630    0.0000 O   0  0  0  0  0  0  0  0  0  0  0  0
   17.6057  -11.3434    0.0000 N   0  0  0  0  0  0  0  0  0  0  0  0
   18.9110  -11.2792    0.0000 N   0  0  0  0  0  0  0  0  0  0  0  0
   19.5268  -10.0750    0.0000 C   0  0  0  0  0  0  0  0  0  0  0  0
   20.8589  -10.1128    0.0000 C   0  0  0  0  0  0  0  0  0  0  0  0
   18.7767   -8.9859    0.0000 C   0  0  0  0  0  0  0  0  0  0  0  0
   17.4437   -9.1441    0.0000 C   0  0  0  0  0  0  0  0  0  0  0  0
   21.5418   -8.9678    0.0000 O   0  0  0  0  0  0  0  0  0  0  0  0
   19.0231   -7.6839    0.0000 O   0  0  0  0  0  0  0  0  0  0  0  0
   16.8645  -12.4447    0.0000 C   0  0  0  0  0  0  0  0  0  0  0  0
   17.5587  -13.6048    0.0000 C   0  0  0  0  0  0  0  0  0  0  0  0
   15.6570  -12.4447    0.0000 C   0  0  0  0  0  0  0  0  0  0  0  0
   16.8800  -14.7498    0.0000 C   0  0  0  0  0  0  0  0  0  0  0  0
   14.8750  -13.5876    0.0000 C   0  0  0  0  0  0  0  0  0  0  0  0
   15.5437  -14.7318    0.0000 C   0  0  0  0  0  0  0  0  0  0  0  0
   11.2491   -9.9814    0.0000 C   0  0  0  0  0  0  0  0  0  0  0  0
   10.3870   -9.0035    0.0000 C   0  0  0  0  0  0  0  0  0  0  0  0
   10.7220  -11.2129    0.0000 C   0  0  0  0  0  0  0  0  0  0  0  0
    9.0767   -9.1088    0.0000 C   0  0  0  0  0  0  0  0  0  0  0  0
    9.4049  -11.3778    0.0000 C   0  0  0  0  0  0  0  0  0  0  0  0
    8.5613  -10.3533    0.0000 C   0  0  0  0  0  0  0  0  0  0  0  0
   21.5234  -11.2653    0.0000 C   0  0  0  0  0  0  0  0  0  0  0  0
   20.9316  -12.4561    0.0000 C   0  0  0  0  0  0  0  0  0  0  0  0
   22.8421  -11.2347    0.0000 C   0  0  0  0  0  0  0  0  0  0  0  0
   21.6614  -13.5679    0.0000 C   0  0  0  0  0  0  0  0  0  0  0  0
   23.5917  -12.3243    0.0000 C   0  0  0  0  0  0  0  0  0  0  0  0
   22.9882  -13.5180    0.0000 C   0  0  0  0  0  0  0  0  0  0  0  0
  1  2  2  0
  2  3  1  0
  3  4  1  0
  3  5  2  0
  4  6  1  0
  4  7  2  0
  5  8  1  0
  9 10  2  0
 10 11  1  0
 11 12  2  0
 11 13  1  0
 13 14  1  0
 12 15  1  0
 13 16  2  0
 18 17  2  0
 19 17  1  0
 20 18  1  0
 21 19  2  0
 22 20  2  0
 22 21  1  0
  9 17  1  0
  1 21  1  0
 24 23  2  0
 25 23  1  0
 26 24  1  0
 27 25  2  0
 28 26  2  0
 28 27  1  0
  5 23  1  0
 30 29  2  0
 31 29  1  0
 32 30  1  0
 33 31  2  0
 34 32  2  0
 34 33  1  0
 12 29  1  0
M  END
>  <Name>  (202) 
Bisazo-diketone-meta-phenyl

>  <logK_Lu_z=3.0_T=25_I=1.0>  (202) 
5.95

$$$$

     RDKit          2D

 24 24  0  0  0  0  0  0  0  0999 V2000
   14.4620  -13.6534    0.0000 N   0  0  0  0  0  0  0  0  0  0  0  0
   13.1888  -13.6298    0.0000 N   0  0  0  0  0  0  0  0  0  0  0  0
   12.1961  -12.7993    0.0000 C   0  0  0  0  0  0  0  0  0  0  0  0
   10.9346  -13.3146    0.0000 C   0  0  0  0  0  0  0  0  0  0  0  0
    9.7968  -12.6389    0.0000 C   0  0  0  0  0  0  0  0  0  0  0  0
   10.8237  -14.6612    0.0000 O   0  0  0  0  0  0  0  0  0  0  0  0
   17.4623   -9.2144    0.0000 N   0  0  0  0  0  0  0  0  0  0  0  0
   16.8262   -8.0528    0.0000 N   0  0  0  0  0  0  0  0  0  0  0  0
   17.4862   -6.8967    0.0000 C   0  0  0  0  0  0  0  0  0  0  0  0
   16.7833   -5.7646    0.0000 C   0  0  0  0  0  0  0  0  0  0  0  0
   18.8149   -6.8725    0.0000 C   0  0  0  0  0  0  0  0  0  0  0  0
   19.5248   -8.0000    0.0000 C   0  0  0  0  0  0  0  0  0  0  0  0
   17.3715   -4.5727    0.0000 O   0  0  0  0  0  0  0  0  0  0  0  0
   19.4850   -5.7209    0.0000 O   0  0  0  0  0  0  0  0  0  0  0  0
   15.4508   -5.8180    0.0000 C   0  0  0  0  0  0  0  0  0  0  0  0
   15.4613  -10.3600    0.0000 C   0  0  0  0  0  0  0  0  0  0  0  0
   16.7984  -10.3652    0.0000 C   0  0  0  0  0  0  0  0  0  0  0  0
   14.8095  -11.4890    0.0000 C   0  0  0  0  0  0  0  0  0  0  0  0
   17.3819  -11.5605    0.0000 C   0  0  0  0  0  0  0  0  0  0  0  0
   15.3465  -12.6828    0.0000 C   0  0  0  0  0  0  0  0  0  0  0  0
   16.6727  -12.6899    0.0000 C   0  0  0  0  0  0  0  0  0  0  0  0
   12.1509  -11.4716    0.0000 C   0  0  0  0  0  0  0  0  0  0  0  0
   13.3097  -10.7723    0.0000 C   0  0  0  0  0  0  0  0  0  0  0  0
   11.1534  -10.6148    0.0000 O   0  0  0  0  0  0  0  0  0  0  0  0
  1  2  2  0
  2  3  1  0
  3  4  1  0
  4  5  1  0
  4  6  2  0
  7  8  2  0
  8  9  1  0
  9 10  2  0
  9 11  1  0
 11 12  1  0
 10 13  1  0
 11 14  2  0
 10 15  1  0
 17 16  2  0
 18 16  1  0
 19 17  1  0
 20 18  2  0
 21 19  2  0
 21 20  1  0
  7 17  1  0
  1 20  1  0
  3 22  2  0
 22 23  1  0
 22 24  1  0
M  END
>  <Name>  (203) 
Bisazo-diketone-para-methyl

>  <logK_Lu_z=3.0_T=25_I=1.0>  (203) 
8.22

$$$$

     RDKit          2D

 34 36  0  0  0  0  0  0  0  0999 V2000
   14.3003  -16.4014    0.0000 N   0  0  0  0  0  0  0  0  0  0  0  0
   12.9712  -16.4657    0.0000 N   0  0  0  0  0  0  0  0  0  0  0  0
   12.0867  -15.4558    0.0000 C   0  0  0  0  0  0  0  0  0  0  0  0
   12.4002  -14.1372    0.0000 C   0  0  0  0  0  0  0  0  0  0  0  0
   12.7209  -12.8692    0.0000 C   0  0  0  0  0  0  0  0  0  0  0  0
   13.4293  -14.8512    0.0000 O   0  0  0  0  0  0  0  0  0  0  0  0
   17.0460  -11.8391    0.0000 N   0  0  0  0  0  0  0  0  0  0  0  0
   16.4089  -10.6767    0.0000 N   0  0  0  0  0  0  0  0  0  0  0  0
   17.1453   -9.5446    0.0000 C   0  0  0  0  0  0  0  0  0  0  0  0
   16.4434   -8.4150    0.0000 C   0  0  0  0  0  0  0  0  0  0  0  0
   18.4613   -9.7104    0.0000 C   0  0  0  0  0  0  0  0  0  0  0  0
   18.9734  -10.9601    0.0000 C   0  0  0  0  0  0  0  0  0  0  0  0
   17.0840   -7.2445    0.0000 O   0  0  0  0  0  0  0  0  0  0  0  0
   19.4523   -8.8282    0.0000 O   0  0  0  0  0  0  0  0  0  0  0  0
   15.0695  -13.0248    0.0000 C   0  0  0  0  0  0  0  0  0  0  0  0
   16.4252  -12.9916    0.0000 C   0  0  0  0  0  0  0  0  0  0  0  0
   14.4650  -14.0719    0.0000 C   0  0  0  0  0  0  0  0  0  0  0  0
   17.0742  -14.1540    0.0000 C   0  0  0  0  0  0  0  0  0  0  0  0
   15.0666  -15.3154    0.0000 C   0  0  0  0  0  0  0  0  0  0  0  0
   16.3916  -15.3027    0.0000 C   0  0  0  0  0  0  0  0  0  0  0  0
   10.7692  -15.4490    0.0000 C   0  0  0  0  0  0  0  0  0  0  0  0
   10.0159  -16.5375    0.0000 O   0  0  0  0  0  0  0  0  0  0  0  0
   15.1133   -8.4103    0.0000 C   0  0  0  0  0  0  0  0  0  0  0  0
   14.3662   -9.5099    0.0000 C   0  0  0  0  0  0  0  0  0  0  0  0
   14.4986   -7.2395    0.0000 C   0  0  0  0  0  0  0  0  0  0  0  0
   13.0392   -9.4186    0.0000 C   0  0  0  0  0  0  0  0  0  0  0  0
   13.1804   -7.1263    0.0000 C   0  0  0  0  0  0  0  0  0  0  0  0
   12.4354   -8.2352    0.0000 C   0  0  0  0  0  0  0  0  0  0  0  0
   10.2340  -14.2187    0.0000 C   0  0  0  0  0  0  0  0  0  0  0  0
   10.8508  -13.0677    0.0000 C   0  0  0  0  0  0  0  0  0  0  0  0
    8.8962  -14.1688    0.0000 C   0  0  0  0  0  0  0  0  0  0  0  0
   10.2868  -11.8797    0.0000 C   0  0  0  0  0  0  0  0  0  0  0  0
    8.2769  -12.9928    0.0000 C   0  0  0  0  0  0  0  0  0  0  0  0
    8.9394  -11.8431    0.0000 C   0  0  0  0  0  0  0  0  0  0  0  0
  1  2  2  0
  2  3  1  0
  3  4  1  0
  4  5  1  0
  4  6  2  0
  7  8  2  0
  8  9  1  0
  9 10  2  0
  9 11  1  0
 11 12  1  0
 10 13  1  0
 11 14  2  0
 16 15  2  0
 17 15  1  0
 18 16  1  0
 19 17  2  0
 20 18  2  0
 20 19  1  0
  7 16  1  0
  1 19  1  0
  3 21  1  0
 21 22  1  0
 24 23  2  0
 25 23  1  0
 26 24  1  0
 27 25  2  0
 28 26  2  0
 28 27  1  0
 10 23  1  0
 30 29  2  0
 31 29  1  0
 32 30  1  0
 33 31  2  0
 34 32  2  0
 34 33  1  0
 21 29  1  0
M  END
>  <Name>  (204) 
Bisazo-diketone-para-phenyl

>  <logK_Lu_z=3.0_T=25_I=1.0>  (204) 
6.4

$$$$

     RDKit          2D

 32 33  0  0  0  0  0  0  0  0999 V2000
    8.9895   -8.8890    0.0000 C   0  0  0  0  0  0  0  0  0  0  0  0
    8.9900   -7.5592    0.0000 N   0  0  0  0  0  0  0  0  0  0  0  0
    7.8474   -9.5382    0.0000 C   0  0  0  0  0  0  0  0  0  0  0  0
    7.8391   -6.8947    0.0000 C   0  0  0  0  0  0  0  0  0  0  0  0
    6.6965   -8.8737    0.0000 C   0  0  0  0  0  0  0  0  0  0  0  0
    6.6877   -7.5600    0.0000 C   0  0  0  0  0  0  0  0  0  0  0  0
    7.8396   -5.5650    0.0000 C   0  0  0  0  0  0  0  0  0  0  0  0
   10.1404   -9.5535    0.0000 C   0  0  0  0  0  0  0  0  0  0  0  0
   10.1497  -10.8674    0.0000 N   0  0  0  0  0  0  0  0  0  0  0  0
   11.3006  -11.5319    0.0000 C   0  0  0  0  0  0  0  0  0  0  0  0
    8.9979  -11.5324    0.0000 C   0  0  0  0  0  0  0  0  0  0  0  0
    8.9978  -12.8625    0.0000 C   0  0  0  0  0  0  0  0  0  0  0  0
   10.1487  -13.5270    0.0000 O   0  0  0  0  0  0  0  0  0  0  0  0
    7.8460  -13.5275    0.0000 O   0  0  0  0  0  0  0  0  0  0  0  0
    8.9909   -4.8997    0.0000 O   0  0  0  0  0  0  0  0  0  0  0  0
    6.6882   -4.9002    0.0000 O   0  0  0  0  0  0  0  0  0  0  0  0
   12.4344  -10.8779    0.0000 C   0  0  0  0  0  0  0  0  0  0  0  0
   13.5853  -11.5424    0.0000 C   0  0  0  0  0  0  0  0  0  0  0  0
   18.1903  -11.5410    0.0000 C   0  0  0  0  0  0  0  0  0  0  0  0
   18.1899  -12.8708    0.0000 C   0  0  0  0  0  0  0  0  0  0  0  0
   17.0394  -10.8765    0.0000 C   0  0  0  0  0  0  0  0  0  0  0  0
   17.0385  -13.5361    0.0000 C   0  0  0  0  0  0  0  0  0  0  0  0
   15.8880  -11.5418    0.0000 C   0  0  0  0  0  0  0  0  0  0  0  0
   15.8876  -12.8716    0.0000 N   0  0  0  0  0  0  0  0  0  0  0  0
   17.0473  -14.8497    0.0000 C   0  0  0  0  0  0  0  0  0  0  0  0
   14.7371  -10.8773    0.0000 N   0  0  0  0  0  0  0  0  0  0  0  0
   14.7372   -9.5473    0.0000 C   0  0  0  0  0  0  0  0  0  0  0  0
   13.5863   -8.8828    0.0000 C   0  0  0  0  0  0  0  0  0  0  0  0
   12.4432   -9.5529    0.0000 O   0  0  0  0  0  0  0  0  0  0  0  0
   13.5950   -7.5578    0.0000 O   0  0  0  0  0  0  0  0  0  0  0  0
   15.8959  -15.5150    0.0000 O   0  0  0  0  0  0  0  0  0  0  0  0
   18.1986  -15.5145    0.0000 O   0  0  0  0  0  0  0  0  0  0  0  0
  2  1  2  0
  3  1  1  0
  4  2  1  0
  5  3  2  0
  6  4  2  0
  6  5  1  0
  4  7  1  0
  1  8  1  0
  8  9  1  0
  9 10  1  0
  9 11  1  0
 11 12  1  0
 12 13  2  0
 12 14  1  0
  7 15  1  0
  7 16  2  0
 10 17  1  0
 20 19  2  0
 21 19  1  0
 22 20  1  0
 23 21  2  0
 24 22  2  0
 24 23  1  0
 22 25  1  0
 23 26  1  0
 18 26  1  0
 26 27  1  0
 27 28  1  0
 28 29  2  0
 28 30  1  0
 25 31  2  0
 25 32  1  0
 17 18  1  0
M  END
>  <Name>  (205) 
C3octapa

>  <logK_Lu_z=3.0_T=25_I=1.0>  (205) 
18.18

$$$$

     RDKit          2D

 24 24  0  0  1  0  0  0  0  0999 V2000
   19.7628  -13.5804    0.0000 C   0  0  0  0  0  0  0  0  0  0  0  0
   19.7628  -14.9104    0.0000 C   0  0  0  0  0  0  0  0  0  0  0  0
   18.6110  -12.9154    0.0000 C   0  0  0  0  0  0  0  0  0  0  0  0
   18.6110  -15.5754    0.0000 C   0  0  0  0  0  0  0  0  0  0  0  0
   17.4592  -13.5804    0.0000 C   0  0  0  0  0  0  0  0  0  0  0  0
   17.4592  -14.9104    0.0000 C   0  0  0  0  0  0  0  0  0  0  0  0
   16.3074  -12.9154    0.0000 N   0  0  0  0  0  0  0  0  0  0  0  0
   18.6110  -11.5854    0.0000 N   0  0  0  0  0  0  0  0  0  0  0  0
   19.7628  -10.9204    0.0000 C   0  0  0  0  0  0  0  0  0  0  0  0
   20.9147  -11.5854    0.0000 C   0  0  0  0  0  0  0  0  0  0  0  0
   17.4592  -10.9204    0.0000 C   0  0  0  0  0  0  0  0  0  0  0  0
   17.4592   -9.5904    0.0000 C   0  0  0  0  0  0  0  0  0  0  0  0
   16.3074  -11.5854    0.0000 C   0  0  0  0  0  0  0  0  0  0  0  0
   15.1556  -10.9204    0.0000 C   0  0  0  0  0  0  0  0  0  0  0  0
   15.1556  -13.5804    0.0000 C   0  0  0  0  0  0  0  0  0  0  0  0
   15.1556  -14.9104    0.0000 C   0  0  0  0  0  0  0  0  0  0  0  0
   22.0665  -10.9204    0.0000 O   0  0  0  0  0  0  0  0  0  0  0  0
   20.9147  -12.9154    0.0000 O   0  0  0  0  0  0  0  0  0  0  0  0
   18.6110   -8.9254    0.0000 O   0  0  0  0  0  0  0  0  0  0  0  0
   16.3074   -8.9254    0.0000 O   0  0  0  0  0  0  0  0  0  0  0  0
   15.1556   -9.5904    0.0000 O   0  0  0  0  0  0  0  0  0  0  0  0
   14.0038  -11.5854    0.0000 O   0  0  0  0  0  0  0  0  0  0  0  0
   16.3074  -15.5754    0.0000 O   0  0  0  0  0  0  0  0  0  0  0  0
   14.0038  -15.5754    0.0000 O   0  0  0  0  0  0  0  0  0  0  0  0
  2  1  1  0
  3  1  1  0
  4  2  1  0
  5  3  1  0
  6  4  1  0
  6  5  1  0
  5  7  1  1
  3  8  1  6
  8  9  1  0
  9 10  1  0
  8 11  1  0
 11 12  1  0
  7 13  1  0
 13 14  1  0
  7 15  1  0
 15 16  1  0
 10 17  1  0
 10 18  2  0
 12 19  2  0
 12 20  1  0
 14 21  2  0
 14 22  1  0
 16 23  2  0
 16 24  1  0
M  END
>  <Name>  (206) 
CDTA

>  <logK_Lu_z=3.0_T=25_I=1.0>  (206) 
21.51

$$$$

     RDKit          2D

 17 17  0  0  0  0  0  0  0  0999 V2000
   12.3850  -11.2864    0.0000 N   0  0  0  0  0  0  0  0  0  0  0  0
   13.3508  -10.0754    0.0000 C   0  0  0  0  0  0  0  0  0  0  0  0
   14.8997  -10.0754    0.0000 C   0  0  0  0  0  0  0  0  0  0  0  0
   15.8655  -11.2864    0.0000 N   0  0  0  0  0  0  0  0  0  0  0  0
   15.5208  -12.7965    0.0000 C   0  0  0  0  0  0  0  0  0  0  0  0
   14.1252  -13.4686    0.0000 P   0  0  0  0  0  0  0  0  0  0  0  0
   12.7297  -12.7965    0.0000 C   0  0  0  0  0  0  0  0  0  0  0  0
   17.3756  -10.9417    0.0000 C   0  0  0  0  0  0  0  0  0  0  0  0
   18.4292  -12.0772    0.0000 C   0  0  0  0  0  0  0  0  0  0  0  0
   10.8749  -10.9417    0.0000 C   0  0  0  0  0  0  0  0  0  0  0  0
    9.8213  -12.0772    0.0000 C   0  0  0  0  0  0  0  0  0  0  0  0
   17.9726  -13.5573    0.0000 O   0  0  0  0  0  0  0  0  0  0  0  0
   19.9393  -11.7325    0.0000 O   0  0  0  0  0  0  0  0  0  0  0  0
   10.2779  -13.5573    0.0000 O   0  0  0  0  0  0  0  0  0  0  0  0
    8.3112  -11.7325    0.0000 O   0  0  0  0  0  0  0  0  0  0  0  0
   13.3508  -14.8100    0.0000 O   0  0  0  0  0  0  0  0  0  0  0  0
   14.8997  -14.8100    0.0000 O   0  0  0  0  0  0  0  0  0  0  0  0
  1  2  1  0
  2  3  1  0
  3  4  1  0
  4  5  1  0
  5  6  1  0
  6  7  1  0
  7  1  1  0
  4  8  1  0
  8  9  1  0
  1 10  1  0
 10 11  1  0
  9 12  2  0
  9 13  1  0
 11 14  2  0
 11 15  1  0
  6 16  2  0
  6 17  1  0
M  END
>  <Name>  (207) 
DEDA-(PO)

>  <logK_Lu_z=3.0_T=25_I=1.0>  (207) 
10.23

$$$$

     RDKit          2D

  9  8  0  0  0  0  0  0  0  0999 V2000
   13.6031  -10.2977    0.0000 C   0  0  0  0  0  0  0  0  0  0  0  0
   14.2533   -9.1715    0.0000 C   0  0  0  0  0  0  0  0  0  0  0  0
   12.4769   -9.6475    0.0000 C   0  0  0  0  0  0  0  0  0  0  0  0
   14.7293  -10.9479    0.0000 O   0  0  0  0  0  0  0  0  0  0  0  0
   12.9529  -11.4239    0.0000 O   0  0  0  0  0  0  0  0  0  0  0  0
   13.6031   -8.0453    0.0000 O   0  0  0  0  0  0  0  0  0  0  0  0
   15.5537   -9.1715    0.0000 O   0  0  0  0  0  0  0  0  0  0  0  0
   12.4769   -8.3471    0.0000 O   0  0  0  0  0  0  0  0  0  0  0  0
   11.3507  -10.2977    0.0000 O   0  0  0  0  0  0  0  0  0  0  0  0
  1  2  1  0
  1  3  1  0
  1  4  1  0
  1  5  1  0
  2  6  2  0
  2  7  1  0
  3  8  2  0
  3  9  1  0
M  END
>  <Name>  (208) 
Dihydroxypropanedioic

>  <logK_Lu_z=3.0_T=25_I=1.0>  (208) 
3.65

$$$$

     RDKit          2D

 20 20  0  0  0  0  0  0  0  0999 V2000
   15.2313  -15.5641    0.0000 N   0  0  0  0  0  0  0  0  0  0  0  0
   11.7482  -11.5227    0.0000 N   0  0  0  0  0  0  0  0  0  0  0  0
   13.5074  -12.5401    0.0000 C   0  0  0  0  0  0  0  0  0  0  0  0
   13.5074  -14.5679    0.0000 C   0  0  0  0  0  0  0  0  0  0  0  0
   16.9906  -14.5679    0.0000 C   0  0  0  0  0  0  0  0  0  0  0  0
   16.9906  -12.5401    0.0000 C   0  0  0  0  0  0  0  0  0  0  0  0
   18.7428  -11.5227    0.0000 N   0  0  0  0  0  0  0  0  0  0  0  0
   18.7428   -9.4950    0.0000 C   0  0  0  0  0  0  0  0  0  0  0  0
   16.9906   -8.4988    0.0000 C   0  0  0  0  0  0  0  0  0  0  0  0
   15.2313   -9.4950    0.0000 N   0  0  0  0  0  0  0  0  0  0  0  0
   13.5074   -8.4988    0.0000 C   0  0  0  0  0  0  0  0  0  0  0  0
   11.7482   -9.4950    0.0000 C   0  0  0  0  0  0  0  0  0  0  0  0
    9.7288  -11.5210    0.0000 C   0  0  0  0  0  0  0  0  0  0  0  0
   20.7621  -11.5210    0.0000 C   0  0  0  0  0  0  0  0  0  0  0  0
   21.7733  -13.2690    0.0000 C   0  0  0  0  0  0  0  0  0  0  0  0
    8.7206   -9.7714    0.0000 C   0  0  0  0  0  0  0  0  0  0  0  0
    9.7318   -8.0234    0.0000 O   0  0  0  0  0  0  0  0  0  0  0  0
    6.7012   -9.7697    0.0000 O   0  0  0  0  0  0  0  0  0  0  0  0
   23.7926  -13.2673    0.0000 O   0  0  0  0  0  0  0  0  0  0  0  0
   20.7651  -15.0187    0.0000 O   0  0  0  0  0  0  0  0  0  0  0  0
  3  4  1  0
  2  3  1  0
  1  4  1  0
  1  5  1  0
  5  6  1  0
  6  7  1  0
  7  8  1  0
  8  9  1  0
  9 10  1  0
 10 11  1  0
 11 12  1  0
 12  2  1  0
  2 13  1  0
  7 14  1  0
 14 15  1  0
 13 16  1  0
 16 17  2  0
 16 18  1  0
 15 19  2  0
 15 20  1  0
M  END
>  <Name>  (209) 
DO2A

>  <logK_Lu_z=3.0_T=25_I=1.0>  (209) 
13.16

$$$$

     RDKit          2D

 22 22  0  0  0  0  0  0  0  0999 V2000
   10.8710   -9.4152    0.0000 N   0  0  0  0  0  0  0  0  0  0  0  0
   12.6455   -9.4108    0.0000 C   0  0  0  0  0  0  0  0  0  0  0  0
   13.5334   -7.8729    0.0000 C   0  0  0  0  0  0  0  0  0  0  0  0
   15.3040   -7.8876    0.0000 N   0  0  0  0  0  0  0  0  0  0  0  0
   16.1753   -9.3981    0.0000 C   0  0  0  0  0  0  0  0  0  0  0  0
   15.2873  -10.9361    0.0000 C   0  0  0  0  0  0  0  0  0  0  0  0
   16.1761  -12.4781    0.0000 N   0  0  0  0  0  0  0  0  0  0  0  0
   15.2882  -14.0161    0.0000 C   0  0  0  0  0  0  0  0  0  0  0  0
   13.5176  -14.0013    0.0000 C   0  0  0  0  0  0  0  0  0  0  0  0
   12.6464  -12.4908    0.0000 N   0  0  0  0  0  0  0  0  0  0  0  0
   10.8758  -12.4760    0.0000 C   0  0  0  0  0  0  0  0  0  0  0  0
    9.9831  -10.9531    0.0000 C   0  0  0  0  0  0  0  0  0  0  0  0
    9.3387   -8.5322    0.0000 C   0  0  0  0  0  0  0  0  0  0  0  0
   17.7070  -13.3637    0.0000 C   0  0  0  0  0  0  0  0  0  0  0  0
    7.8078   -9.4178    0.0000 P   0  0  0  0  0  0  0  0  0  0  0  0
   19.2393  -12.4807    0.0000 P   0  0  0  0  0  0  0  0  0  0  0  0
    6.9223   -7.8869    0.0000 O   0  0  0  0  0  0  0  0  0  0  0  0
    8.6934  -10.9486    0.0000 O   0  0  0  0  0  0  0  0  0  0  0  0
    6.2770  -10.3033    0.0000 O   0  0  0  0  0  0  0  0  0  0  0  0
   18.3563  -10.9483    0.0000 O   0  0  0  0  0  0  0  0  0  0  0  0
   20.1223  -14.0130    0.0000 O   0  0  0  0  0  0  0  0  0  0  0  0
   20.7717  -11.5977    0.0000 O   0  0  0  0  0  0  0  0  0  0  0  0
  1  2  1  0
  2  3  1  0
  3  4  1  0
  4  5  1  0
  5  6  1  0
  6  7  1  0
  7  8  1  0
  8  9  1  0
  9 10  1  0
 10 11  1  0
 11 12  1  0
 12  1  1  0
  1 13  1  0
  7 14  1  0
 13 15  1  0
 14 16  1  0
 15 17  1  0
 15 18  1  0
 15 19  2  0
 16 20  1  0
 16 21  1  0
 16 22  2  0
M  END
>  <Name>  (210) 
DO2P

>  <logK_Lu_z=3.0_T=25_I=1.0>  (210) 
19.3

$$$$

     RDKit          2D

 37 38  0  0  0  0  0  0  0  0999 V2000
   13.6741   -8.2529    0.0000 N   0  0  0  0  0  0  0  0  0  0  0  0
   14.9593   -8.5984    0.0000 C   0  0  0  0  0  0  0  0  0  0  0  0
   15.8896   -9.5381    0.0000 C   0  0  0  0  0  0  0  0  0  0  0  0
   16.2351  -10.8139    0.0000 N   0  0  0  0  0  0  0  0  0  0  0  0
   15.8896  -12.0991    0.0000 C   0  0  0  0  0  0  0  0  0  0  0  0
   14.9593  -13.0388    0.0000 C   0  0  0  0  0  0  0  0  0  0  0  0
   13.6741  -13.3843    0.0000 N   0  0  0  0  0  0  0  0  0  0  0  0
   12.3889  -13.0388    0.0000 C   0  0  0  0  0  0  0  0  0  0  0  0
   11.4492  -12.0991    0.0000 C   0  0  0  0  0  0  0  0  0  0  0  0
   11.1037  -10.8139    0.0000 N   0  0  0  0  0  0  0  0  0  0  0  0
   11.4492   -9.5381    0.0000 C   0  0  0  0  0  0  0  0  0  0  0  0
   12.3889   -8.5984    0.0000 C   0  0  0  0  0  0  0  0  0  0  0  0
   13.6741   -6.9233    0.0000 C   0  0  0  0  0  0  0  0  0  0  0  0
   14.8262   -6.2583    0.0000 C   0  0  0  0  0  0  0  0  0  0  0  0
   13.6741  -14.7139    0.0000 C   0  0  0  0  0  0  0  0  0  0  0  0
   14.8262  -15.3784    0.0000 C   0  0  0  0  0  0  0  0  0  0  0  0
   15.9694   -6.9233    0.0000 O   0  0  0  0  0  0  0  0  0  0  0  0
   14.8262   -4.9287    0.0000 O   0  0  0  0  0  0  0  0  0  0  0  0
   15.9694  -14.7139    0.0000 O   0  0  0  0  0  0  0  0  0  0  0  0
   14.8262  -16.7080    0.0000 O   0  0  0  0  0  0  0  0  0  0  0  0
    9.7741  -10.8139    0.0000 C   0  0  0  0  0  0  0  0  0  0  0  0
    9.1091  -11.9660    0.0000 C   0  0  0  0  0  0  0  0  0  0  0  0
    9.7741  -13.1186    0.0000 O   0  0  0  0  0  0  0  0  0  0  0  0
    7.7800  -11.9660    0.0000 O   0  0  0  0  0  0  0  0  0  0  0  0
   17.5647  -10.8139    0.0000 C   0  0  0  0  0  0  0  0  0  0  0  0
   18.2292   -9.6707    0.0000 C   0  0  0  0  0  0  0  0  0  0  0  0
   19.5588   -9.6707    0.0000 N   0  0  0  0  0  0  0  0  0  0  0  0
   20.2238   -8.5186    0.0000 S   0  0  0  0  0  0  0  0  0  0  0  0
   19.0712   -7.8541    0.0000 O   0  0  0  0  0  0  0  0  0  0  0  0
   21.3759   -9.1836    0.0000 O   0  0  0  0  0  0  0  0  0  0  0  0
   20.8884   -7.3665    0.0000 C   0  0  0  0  0  0  0  0  0  0  0  0
   20.2238   -6.2139    0.0000 C   0  0  0  0  0  0  0  0  0  0  0  0
   22.2179   -7.3665    0.0000 C   0  0  0  0  0  0  0  0  0  0  0  0
   20.8884   -5.0618    0.0000 C   0  0  0  0  0  0  0  0  0  0  0  0
   22.8825   -6.2139    0.0000 C   0  0  0  0  0  0  0  0  0  0  0  0
   22.2179   -5.0618    0.0000 C   0  0  0  0  0  0  0  0  0  0  0  0
   22.8825   -3.9097    0.0000 O   0  0  0  0  0  0  0  0  0  0  0  0
  1  2  1  0
  2  3  1  0
  3  4  1  0
  4  5  1  0
  5  6  1  0
  6  7  1  0
  7  8  1  0
  8  9  1  0
  9 10  1  0
 10 11  1  0
 11 12  1  0
 12  1  1  0
  1 13  1  0
 13 14  1  0
  7 15  1  0
 15 16  1  0
 14 17  2  0
 14 18  1  0
 16 19  2  0
 16 20  1  0
 10 21  1  0
 21 22  1  0
 22 23  2  0
 22 24  1  0
  4 25  1  0
 25 26  1  0
 26 27  1  0
 27 28  1  0
 28 29  2  0
 28 30  2  0
 32 31  2  0
 33 31  1  0
 34 32  1  0
 35 33  2  0
 36 34  2  0
 36 35  1  0
 28 31  1  0
 36 37  1  0
M  END
>  <Name>  (211) 
DO3A-SA

>  <logK_Lu_z=3.0_T=25_I=1.0>  (211) 
23.65

$$$$

     RDKit          2D

 24 24  0  0  0  0  0  0  0  0999 V2000
   19.1823   -5.7145    0.0000 N   0  0  0  0  0  0  0  0  0  0  0  0
   20.3410   -5.0583    0.0000 C   0  0  0  0  0  0  0  0  0  0  0  0
   21.4764   -5.7145    0.0000 C   0  0  0  0  0  0  0  0  0  0  0  0
   21.4764   -7.0500    0.0000 N   0  0  0  0  0  0  0  0  0  0  0  0
   22.6352   -7.7201    0.0000 C   0  0  0  0  0  0  0  0  0  0  0  0
   22.6352   -9.0557    0.0000 C   0  0  0  0  0  0  0  0  0  0  0  0
   21.4764   -9.7118    0.0000 N   0  0  0  0  0  0  0  0  0  0  0  0
   20.3410   -9.0557    0.0000 C   0  0  0  0  0  0  0  0  0  0  0  0
   19.1823   -9.7118    0.0000 C   0  0  0  0  0  0  0  0  0  0  0  0
   18.0282   -9.0557    0.0000 N   0  0  0  0  0  0  0  0  0  0  0  0
   18.0282   -7.7201    0.0000 C   0  0  0  0  0  0  0  0  0  0  0  0
   19.1823   -7.0500    0.0000 C   0  0  0  0  0  0  0  0  0  0  0  0
   18.5203   -4.5609    0.0000 C   0  0  0  0  0  0  0  0  0  0  0  0
   17.1903   -4.5574    0.0000 C   0  0  0  0  0  0  0  0  0  0  0  0
   22.1386  -10.8653    0.0000 C   0  0  0  0  0  0  0  0  0  0  0  0
   23.4686  -10.8686    0.0000 C   0  0  0  0  0  0  0  0  0  0  0  0
   16.5283   -3.4038    0.0000 O   0  0  0  0  0  0  0  0  0  0  0  0
   16.5222   -5.7074    0.0000 O   0  0  0  0  0  0  0  0  0  0  0  0
   24.1307  -12.0221    0.0000 O   0  0  0  0  0  0  0  0  0  0  0  0
   24.1365   -9.7185    0.0000 O   0  0  0  0  0  0  0  0  0  0  0  0
   16.8780   -9.7234    0.0000 C   0  0  0  0  0  0  0  0  0  0  0  0
   15.7246   -9.0612    0.0000 C   0  0  0  0  0  0  0  0  0  0  0  0
   15.7214   -7.7311    0.0000 O   0  0  0  0  0  0  0  0  0  0  0  0
   14.5743   -9.7289    0.0000 O   0  0  0  0  0  0  0  0  0  0  0  0
  1  2  1  0
  2  3  1  0
  3  4  1  0
  4  5  1  0
  5  6  1  0
  6  7  1  0
  7  8  1  0
  8  9  1  0
  9 10  1  0
 10 11  1  0
 11 12  1  0
 12  1  1  0
  1 13  1  0
 13 14  1  0
  7 15  1  0
 15 16  1  0
 14 17  2  0
 14 18  1  0
 16 19  2  0
 16 20  1  0
 10 21  1  0
 21 22  1  0
 22 23  2  0
 22 24  1  0
M  END
>  <Name>  (212) 
DO3A

>  <logK_Lu_z=3.0_T=25_I=1.0>  (212) 
21.44

$$$$

     RDKit          2D

 32 32  0  0  0  0  0  0  0  0999 V2000
   17.9074  -13.0930    0.0000 N   0  0  0  0  0  0  0  0  0  0  0  0
   16.0185  -13.0930    0.0000 C   0  0  0  0  0  0  0  0  0  0  0  0
   15.0708  -14.7318    0.0000 C   0  0  0  0  0  0  0  0  0  0  0  0
   13.1820  -14.7318    0.0000 N   0  0  0  0  0  0  0  0  0  0  0  0
   18.8353  -11.4872    0.0000 C   0  0  0  0  0  0  0  0  0  0  0  0
   17.9074   -9.8484    0.0000 C   0  0  0  0  0  0  0  0  0  0  0  0
   12.2540   -9.8484    0.0000 N   0  0  0  0  0  0  0  0  0  0  0  0
   13.1820   -8.2162    0.0000 C   0  0  0  0  0  0  0  0  0  0  0  0
   15.0708   -8.2162    0.0000 C   0  0  0  0  0  0  0  0  0  0  0  0
   16.0185   -9.8484    0.0000 N   0  0  0  0  0  0  0  0  0  0  0  0
   13.1820  -11.4872    0.0000 C   0  0  0  0  0  0  0  0  0  0  0  0
   12.2540  -13.0930    0.0000 C   0  0  0  0  0  0  0  0  0  0  0  0
   16.9636   -8.2220    0.0000 C   0  0  0  0  0  0  0  0  0  0  0  0
   19.5408  -14.0259    0.0000 C   0  0  0  0  0  0  0  0  0  0  0  0
   12.2373  -16.3584    0.0000 C   0  0  0  0  0  0  0  0  0  0  0  0
   10.6245   -8.9086    0.0000 C   0  0  0  0  0  0  0  0  0  0  0  0
    8.9959   -9.8499    0.0000 P   0  0  0  0  0  0  0  0  0  0  0  0
   18.8447   -8.2273    0.0000 P   0  0  0  0  0  0  0  0  0  0  0  0
   21.1654  -13.0778    0.0000 P   0  0  0  0  0  0  0  0  0  0  0  0
   10.3563  -16.3536    0.0000 P   0  0  0  0  0  0  0  0  0  0  0  0
   18.8499   -6.3463    0.0000 O   0  0  0  0  0  0  0  0  0  0  0  0
   18.8394  -10.1083    0.0000 O   0  0  0  0  0  0  0  0  0  0  0  0
   20.7257   -8.2326    0.0000 O   0  0  0  0  0  0  0  0  0  0  0  0
   20.2173  -11.4532    0.0000 O   0  0  0  0  0  0  0  0  0  0  0  0
   22.1135  -14.7024    0.0000 O   0  0  0  0  0  0  0  0  0  0  0  0
   22.7900  -12.1296    0.0000 O   0  0  0  0  0  0  0  0  0  0  0  0
   10.3610  -14.4726    0.0000 O   0  0  0  0  0  0  0  0  0  0  0  0
   10.3515  -18.2347    0.0000 O   0  0  0  0  0  0  0  0  0  0  0  0
    8.4752  -16.3489    0.0000 O   0  0  0  0  0  0  0  0  0  0  0  0
    8.0546   -8.2213    0.0000 O   0  0  0  0  0  0  0  0  0  0  0  0
    9.9372  -11.4785    0.0000 O   0  0  0  0  0  0  0  0  0  0  0  0
    7.3673  -10.7912    0.0000 O   0  0  0  0  0  0  0  0  0  0  0  0
  1  2  1  0
  2  3  1  0
  3  4  1  0
  1  5  1  0
  5  6  1  0
  7  8  1  0
  8  9  1  0
  9 10  1  0
  6 10  1  0
  7 11  1  0
 11 12  1  0
 12  4  1  0
 10 13  1  0
  1 14  1  0
  4 15  1  0
  7 16  1  0
 16 17  1  0
 13 18  1  0
 14 19  1  0
 15 20  1  0
 18 21  2  0
 18 22  1  0
 18 23  1  0
 19 24  2  0
 19 25  1  0
 19 26  1  0
 20 27  1  0
 20 28  1  0
 20 29  2  0
 17 30  1  0
 17 31  2  0
 17 32  1  0
M  END
>  <Name>  (213) 
DOTP

>  <logK_Lu_z=3.0_T=25_I=1.0>  (213) 
24.78

$$$$

     RDKit          2D

 48 48  0  0  0  0  0  0  0  0999 V2000
   12.8697   -9.0695    0.0000 N   0  0  0  0  0  0  0  0  0  0  0  0
   14.6425   -8.5994    0.0000 C   0  0  0  0  0  0  0  0  0  0  0  0
   16.4225   -9.0763    0.0000 C   0  0  0  0  0  0  0  0  0  0  0  0
   17.7228  -10.3699    0.0000 N   0  0  0  0  0  0  0  0  0  0  0  0
   18.1929  -12.1428    0.0000 C   0  0  0  0  0  0  0  0  0  0  0  0
   17.7160  -13.9227    0.0000 C   0  0  0  0  0  0  0  0  0  0  0  0
   16.4224  -15.2230    0.0000 N   0  0  0  0  0  0  0  0  0  0  0  0
   14.6495  -15.6931    0.0000 C   0  0  0  0  0  0  0  0  0  0  0  0
   12.8696  -15.2162    0.0000 C   0  0  0  0  0  0  0  0  0  0  0  0
   11.5693  -13.9226    0.0000 N   0  0  0  0  0  0  0  0  0  0  0  0
   11.0992  -12.1497    0.0000 C   0  0  0  0  0  0  0  0  0  0  0  0
   11.5761  -10.3698    0.0000 C   0  0  0  0  0  0  0  0  0  0  0  0
   11.9474   -7.4721    0.0000 C   0  0  0  0  0  0  0  0  0  0  0  0
   19.3201   -9.4477    0.0000 C   0  0  0  0  0  0  0  0  0  0  0  0
   17.3446  -16.8204    0.0000 C   0  0  0  0  0  0  0  0  0  0  0  0
    9.9719  -14.8449    0.0000 C   0  0  0  0  0  0  0  0  0  0  0  0
   10.1128   -7.4664    0.0000 P   0  0  0  0  0  0  0  0  0  0  0  0
   19.3258   -7.6130    0.0000 P   0  0  0  0  0  0  0  0  0  0  0  0
   19.1792  -16.8261    0.0000 P   0  0  0  0  0  0  0  0  0  0  0  0
    9.9662  -16.6795    0.0000 P   0  0  0  0  0  0  0  0  0  0  0  0
    8.2683   -7.4673    0.0000 C   0  0  0  0  0  0  0  0  0  0  0  0
    7.3460   -5.8699    0.0000 C   0  0  0  0  0  0  0  0  0  0  0  0
    5.5005   -5.8705    0.0000 C   0  0  0  0  0  0  0  0  0  0  0  0
   19.3250   -5.7685    0.0000 C   0  0  0  0  0  0  0  0  0  0  0  0
   20.9224   -4.8463    0.0000 C   0  0  0  0  0  0  0  0  0  0  0  0
   20.9218   -3.0008    0.0000 C   0  0  0  0  0  0  0  0  0  0  0  0
   21.0238  -16.8252    0.0000 C   0  0  0  0  0  0  0  0  0  0  0  0
   21.9460  -18.4226    0.0000 C   0  0  0  0  0  0  0  0  0  0  0  0
   23.7915  -18.4220    0.0000 C   0  0  0  0  0  0  0  0  0  0  0  0
    9.9671  -18.5240    0.0000 C   0  0  0  0  0  0  0  0  0  0  0  0
    8.3697  -19.4462    0.0000 C   0  0  0  0  0  0  0  0  0  0  0  0
    8.3703  -21.2918    0.0000 C   0  0  0  0  0  0  0  0  0  0  0  0
    4.5773   -7.4685    0.0000 O   0  0  0  0  0  0  0  0  0  0  0  0
    4.5786   -4.2738    0.0000 O   0  0  0  0  0  0  0  0  0  0  0  0
   19.3238   -2.0775    0.0000 O   0  0  0  0  0  0  0  0  0  0  0  0
   22.5185   -2.0789    0.0000 O   0  0  0  0  0  0  0  0  0  0  0  0
   24.7148  -16.8240    0.0000 O   0  0  0  0  0  0  0  0  0  0  0  0
   24.7134  -20.0187    0.0000 O   0  0  0  0  0  0  0  0  0  0  0  0
    9.9683  -22.2150    0.0000 O   0  0  0  0  0  0  0  0  0  0  0  0
    6.7735  -22.2136    0.0000 O   0  0  0  0  0  0  0  0  0  0  0  0
   10.1126   -5.6216    0.0000 O   0  0  0  0  0  0  0  0  0  0  0  0
   10.1140   -9.3116    0.0000 O   0  0  0  0  0  0  0  0  0  0  0  0
   21.1707   -7.6128    0.0000 O   0  0  0  0  0  0  0  0  0  0  0  0
   17.4807   -7.6143    0.0000 O   0  0  0  0  0  0  0  0  0  0  0  0
   19.1795  -18.6710    0.0000 O   0  0  0  0  0  0  0  0  0  0  0  0
   19.1780  -14.9809    0.0000 O   0  0  0  0  0  0  0  0  0  0  0  0
    8.1213  -16.6797    0.0000 O   0  0  0  0  0  0  0  0  0  0  0  0
   11.8114  -16.6782    0.0000 O   0  0  0  0  0  0  0  0  0  0  0  0
  1  2  1  0
  2  3  1  0
  3  4  1  0
  4  5  1  0
  5  6  1  0
  6  7  1  0
  7  8  1  0
  8  9  1  0
  9 10  1  0
 10 11  1  0
 11 12  1  0
 12  1  1  0
  1 13  1  0
  4 14  1  0
  7 15  1  0
 10 16  1  0
 13 17  1  0
 14 18  1  0
 15 19  1  0
 16 20  1  0
 17 21  1  0
 21 22  1  0
 22 23  1  0
 18 24  1  0
 24 25  1  0
 25 26  1  0
 19 27  1  0
 27 28  1  0
 28 29  1  0
 20 30  1  0
 30 31  1  0
 31 32  1  0
 23 33  2  0
 23 34  1  0
 26 35  2  0
 26 36  1  0
 29 37  2  0
 29 38  1  0
 32 39  2  0
 32 40  1  0
 17 41  1  0
 17 42  2  0
 18 43  1  0
 18 44  2  0
 19 45  1  0
 19 46  2  0
 20 47  1  0
 20 48  2  0
M  END
>  <Name>  (214) 
DOTPI

>  <logK_Lu_z=3.0_T=25_I=1.0>  (214) 
20.0

$$$$

     RDKit          3D

 26 30  0  0  0  0  0  0  0  0999 V2000
   16.4176  -11.3689    0.0000 C   0  0  0  0  0  0  0  0  0  0  0  0
   17.0827  -12.5207    0.0000 C   0  0  0  0  0  0  0  0  0  0  0  0
   15.0876  -11.3689    0.0000 C   0  0  0  0  0  0  0  0  0  0  0  0
   16.4176  -13.6726    0.0000 C   0  0  0  0  0  0  0  0  0  0  0  0
   14.4226  -12.5208    0.0000 C   0  0  0  0  0  0  0  0  0  0  0  0
   15.0876  -13.6726    0.0000 C   0  0  0  0  0  0  0  0  0  0  0  0
   17.0826  -10.2172    0.0000 N   0  0  0  0  0  0  0  0  0  0  0  0
   18.4126  -10.2172    0.0000 C   0  0  0  0  0  0  0  0  0  0  0  0
   18.4125  -12.5207    0.0000 C   0  0  0  0  0  0  0  0  0  0  0  0
   19.0775  -11.3690    0.0000 C   0  0  0  0  0  0  0  0  0  0  0  0
   14.4226  -10.2173    0.0000 N   0  0  0  0  0  0  0  0  0  0  0  0
   13.0926  -10.2174    0.0000 C   0  0  0  0  0  0  0  0  0  0  0  0
   13.0927  -12.5208    0.0000 C   0  0  0  0  0  0  0  0  0  0  0  0
   12.4277  -11.3691    0.0000 C   0  0  0  0  0  0  0  0  0  0  0  0
   19.0776   -9.0655    0.0000 C   0  0  0  0  0  0  0  0  0  0  0  0
   18.4126   -7.9138    0.0000 N   0  0  0  0  0  0  0  0  0  0  0  0
   20.4075   -9.0655    0.0000 C   0  0  0  0  0  0  0  0  0  0  0  0
   19.0777   -6.7620    0.0000 C   0  0  0  0  0  0  0  0  0  0  0  0
   21.0725   -7.9138    0.0000 C   0  0  0  0  0  0  0  0  0  0  0  0
   20.4075   -6.7620    0.0000 C   0  0  0  0  0  0  0  0  0  0  0  0
   12.4276   -9.0657    0.0000 C   0  0  0  0  0  0  0  0  0  0  0  0
   11.0978   -9.0656    0.0000 C   0  0  0  0  0  0  0  0  0  0  0  0
   13.0926   -7.9139    0.0000 N   0  0  0  0  0  0  0  0  0  0  0  0
   10.4328   -7.9138    0.0000 C   0  0  0  0  0  0  0  0  0  0  0  0
   12.4277   -6.7622    0.0000 C   0  0  0  0  0  0  0  0  0  0  0  0
   11.0978   -6.7621    0.0000 C   0  0  0  0  0  0  0  0  0  0  0  0
  3  1  2  0
  4  2  2  0
  6  4  1  0
  6  5  2  0
  7  1  1  0
  2  1  1  0
  8  7  2  0
  9  2  1  0
 10  8  1  0
 10  9  2  0
 11  3  1  0
  5  3  1  0
 12 11  2  0
 13  5  1  0
 14 12  1  0
 14 13  2  0
 16 15  2  0
 17 15  1  0
 18 16  1  0
 19 17  2  0
 20 18  2  0
 20 19  1  0
  8 15  1  0
 22 21  2  0
 23 21  1  0
 24 22  1  0
 25 23  2  0
 26 24  2  0
 26 25  1  0
 12 21  1  0
M  END
>  <Name>  (215) 
DPP

>  <logK_Lu_z=3.0_T=25_I=1.0>  (215) 
5.38

$$$$

     RDKit          2D

 44 46  0  0  0  0  0  0  0  0999 V2000
   17.8476   -9.1886    0.0000 C   0  0  0  0  0  0  0  0  0  0  0  0
   18.1248   -6.2858    0.0000 C   0  0  0  0  0  0  0  0  0  0  0  0
   20.2230  -10.8801    0.0000 C   0  0  0  0  0  0  0  0  0  0  0  0
   19.1296   -7.1565    0.0000 C   0  0  0  0  0  0  0  0  0  0  0  0
   20.2230   -9.5506    0.0000 C   0  0  0  0  0  0  0  0  0  0  0  0
   19.8484   -8.2749    0.0000 C   0  0  0  0  0  0  0  0  0  0  0  0
   19.8484  -12.1558    0.0000 C   0  0  0  0  0  0  0  0  0  0  0  0
   16.9155   -5.7335    0.0000 C   0  0  0  0  0  0  0  0  0  0  0  0
   19.1296  -13.2743    0.0000 N   0  0  0  0  0  0  0  0  0  0  0  0
   15.5995   -5.5443    0.0000 N   0  0  0  0  0  0  0  0  0  0  0  0
   14.2835   -5.7335    0.0000 C   0  0  0  0  0  0  0  0  0  0  0  0
   13.0741   -6.2858    0.0000 C   0  0  0  0  0  0  0  0  0  0  0  0
   14.2835  -14.6972    0.0000 C   0  0  0  0  0  0  0  0  0  0  0  0
   11.3505   -8.2749    0.0000 C   0  0  0  0  0  0  0  0  0  0  0  0
   15.5995  -14.8864    0.0000 N   0  0  0  0  0  0  0  0  0  0  0  0
   12.0693   -7.1565    0.0000 N   0  0  0  0  0  0  0  0  0  0  0  0
   16.9155  -14.6972    0.0000 C   0  0  0  0  0  0  0  0  0  0  0  0
   18.1248  -14.1449    0.0000 C   0  0  0  0  0  0  0  0  0  0  0  0
   20.4351  -13.5259    0.0000 C   0  0  0  0  0  0  0  0  0  0  0  0
   20.8700  -14.7823    0.0000 C   0  0  0  0  0  0  0  0  0  0  0  0
   16.2642  -16.0379    0.0000 C   0  0  0  0  0  0  0  0  0  0  0  0
   15.5995  -17.1893    0.0000 C   0  0  0  0  0  0  0  0  0  0  0  0
   14.9347   -4.3929    0.0000 C   0  0  0  0  0  0  0  0  0  0  0  0
   15.5995   -3.2415    0.0000 C   0  0  0  0  0  0  0  0  0  0  0  0
   10.7638   -6.9048    0.0000 C   0  0  0  0  0  0  0  0  0  0  0  0
   10.3289   -5.6484    0.0000 C   0  0  0  0  0  0  0  0  0  0  0  0
   13.0741  -14.1449    0.0000 C   0  0  0  0  0  0  0  0  0  0  0  0
   13.3513  -11.2421    0.0000 C   0  0  0  0  0  0  0  0  0  0  0  0
   12.0693  -13.2743    0.0000 C   0  0  0  0  0  0  0  0  0  0  0  0
   10.9759   -9.5506    0.0000 C   0  0  0  0  0  0  0  0  0  0  0  0
   11.3505  -12.1558    0.0000 C   0  0  0  0  0  0  0  0  0  0  0  0
   10.9759  -10.8801    0.0000 C   0  0  0  0  0  0  0  0  0  0  0  0
   21.5390   -9.3614    0.0000 O   0  0  0  0  0  0  0  0  0  0  0  0
   21.0578   -7.7226    0.0000 O   0  0  0  0  0  0  0  0  0  0  0  0
   10.1411  -12.7081    0.0000 O   0  0  0  0  0  0  0  0  0  0  0  0
    9.6599  -11.0693    0.0000 O   0  0  0  0  0  0  0  0  0  0  0  0
   16.2642  -18.3407    0.0000 O   0  0  0  0  0  0  0  0  0  0  0  0
   14.2699  -17.1893    0.0000 O   0  0  0  0  0  0  0  0  0  0  0  0
    9.0234   -5.3968    0.0000 O   0  0  0  0  0  0  0  0  0  0  0  0
   11.1996   -4.6436    0.0000 O   0  0  0  0  0  0  0  0  0  0  0  0
   14.9347   -2.0901    0.0000 O   0  0  0  0  0  0  0  0  0  0  0  0
   16.9290   -3.2415    0.0000 O   0  0  0  0  0  0  0  0  0  0  0  0
   22.1755  -15.0339    0.0000 O   0  0  0  0  0  0  0  0  0  0  0  0
   19.9993  -15.7871    0.0000 O   0  0  0  0  0  0  0  0  0  0  0  0
  2  1  1  0
  3  1  1  0
  4  2  2  0
  5  3  2  0
  6  4  1  0
  6  5  1  0
  3  7  1  0
  2  8  1  0
  7  9  1  0
  8 10  1  0
 10 11  1  0
 11 12  1  0
 13 15  1  0
 14 16  1  0
 12 16  1  0
 15 17  1  0
 17 18  1  0
  9 18  1  0
  9 19  1  0
 19 20  1  0
 15 21  1  0
 21 22  1  0
 10 23  1  0
 23 24  1  0
 16 25  1  0
 25 26  1  0
 28 27  1  0
 29 27  2  0
 30 28  1  0
 31 29  1  0
 32 30  2  0
 32 31  1  0
 13 27  1  0
 14 30  1  0
  5 33  1  0
  6 34  2  0
 31 35  2  0
 32 36  1  0
 22 37  2  0
 22 38  1  0
 26 39  2  0
 26 40  1  0
 24 41  2  0
 24 42  1  0
 20 43  2  0
 20 44  1  0
M  CHG  4   9   1  10   1  15   1  16   1
M  END
>  <Name>  (216) 
EDDA-K2

>  <logK_Lu_z=3.0_T=25_I=1.0>  (216) 
6.1

$$$$

     RDKit          2D

 10  9  0  0  0  0  0  0  0  0999 V2000
   17.0551   -7.7150    0.0000 C   0  0  0  0  0  0  0  0  0  0  0  0
   18.6947   -8.6616    0.0000 C   0  0  0  0  0  0  0  0  0  0  0  0
   20.3343   -7.7150    0.0000 N   0  0  0  0  0  0  0  0  0  0  0  0
   15.4154   -8.6616    0.0000 N   0  0  0  0  0  0  0  0  0  0  0  0
   21.9740   -8.6616    0.0000 C   0  0  0  0  0  0  0  0  0  0  0  0
   13.7758   -7.7150    0.0000 C   0  0  0  0  0  0  0  0  0  0  0  0
   23.6136   -7.7150    0.0000 O   0  0  0  0  0  0  0  0  0  0  0  0
   21.9740  -10.5549    0.0000 O   0  0  0  0  0  0  0  0  0  0  0  0
   13.7758   -5.8217    0.0000 O   0  0  0  0  0  0  0  0  0  0  0  0
   12.1362   -8.6616    0.0000 O   0  0  0  0  0  0  0  0  0  0  0  0
  1  2  1  0
  2  3  1  0
  1  4  1  0
  3  5  1  0
  4  6  1  0
  5  7  1  0
  5  8  2  0
  6  9  1  0
  6 10  2  0
M  END
>  <Name>  (217) 
EDDA

>  <logK_Lu_z=3.0_T=25_I=1.0>  (217) 
9.09

$$$$

     RDKit          2D

 22 21  0  0  0  0  0  0  0  0999 V2000
   13.6224   -9.8308    0.0000 N   0  0  0  0  0  0  0  0  0  0  0  0
   14.7742  -10.4958    0.0000 C   0  0  0  0  0  0  0  0  0  0  0  0
   15.9260   -9.8308    0.0000 C   0  0  0  0  0  0  0  0  0  0  0  0
   17.0778  -10.4958    0.0000 N   0  0  0  0  0  0  0  0  0  0  0  0
   18.2297   -9.8308    0.0000 C   0  0  0  0  0  0  0  0  0  0  0  0
   18.2297   -8.5008    0.0000 C   0  0  0  0  0  0  0  0  0  0  0  0
   19.3815   -7.8358    0.0000 C   0  0  0  0  0  0  0  0  0  0  0  0
   19.3815   -6.5058    0.0000 C   0  0  0  0  0  0  0  0  0  0  0  0
   19.3815  -10.4958    0.0000 C   0  0  0  0  0  0  0  0  0  0  0  0
   12.4706  -10.4958    0.0000 C   0  0  0  0  0  0  0  0  0  0  0  0
   11.3188   -9.8308    0.0000 C   0  0  0  0  0  0  0  0  0  0  0  0
   12.4706  -11.8258    0.0000 C   0  0  0  0  0  0  0  0  0  0  0  0
   11.3188   -8.5008    0.0000 C   0  0  0  0  0  0  0  0  0  0  0  0
   10.1670   -7.8358    0.0000 C   0  0  0  0  0  0  0  0  0  0  0  0
   20.5333   -5.8408    0.0000 O   0  0  0  0  0  0  0  0  0  0  0  0
   18.2297   -5.8408    0.0000 O   0  0  0  0  0  0  0  0  0  0  0  0
   20.5333   -9.8308    0.0000 O   0  0  0  0  0  0  0  0  0  0  0  0
   19.3815  -11.8258    0.0000 O   0  0  0  0  0  0  0  0  0  0  0  0
   13.6224  -12.4908    0.0000 O   0  0  0  0  0  0  0  0  0  0  0  0
   11.3188  -12.4908    0.0000 O   0  0  0  0  0  0  0  0  0  0  0  0
   10.1670   -6.5058    0.0000 O   0  0  0  0  0  0  0  0  0  0  0  0
    9.0151   -8.5008    0.0000 O   0  0  0  0  0  0  0  0  0  0  0  0
  1  2  1  0
  2  3  1  0
  3  4  1  0
  4  5  1  0
  5  6  1  0
  6  7  1  0
  7  8  1  0
  5  9  1  0
  1 10  1  0
 10 11  1  0
 10 12  1  0
 11 13  1  0
 13 14  1  0
  8 15  2  0
  8 16  1  0
  9 17  2  0
  9 18  1  0
 12 19  2  0
 12 20  1  0
 14 21  2  0
 14 22  1  0
M  END
>  <Name>  (218) 
EDDG

>  <logK_Lu_z=3.0_T=25_I=1.0>  (218) 
9.7

$$$$

     RDKit          2D

 24 23  0  0  0  0  0  0  0  0999 V2000
   12.4547  -11.9641    0.0000 N   0  0  0  0  0  0  0  0  0  0  0  0
   13.7534  -12.7139    0.0000 C   0  0  0  0  0  0  0  0  0  0  0  0
   15.0422  -11.9809    0.0000 C   0  0  0  0  0  0  0  0  0  0  0  0
   16.3317  -12.7254    0.0000 N   0  0  0  0  0  0  0  0  0  0  0  0
   16.3414  -14.2080    0.0000 C   0  0  0  0  0  0  0  0  0  0  0  0
   17.6307  -11.9748    0.0000 C   0  0  0  0  0  0  0  0  0  0  0  0
   11.1557  -12.7148    0.0000 C   0  0  0  0  0  0  0  0  0  0  0  0
   12.4451  -10.4815    0.0000 C   0  0  0  0  0  0  0  0  0  0  0  0
   11.1553  -14.2148    0.0000 P   0  0  0  0  0  0  0  0  0  0  0  0
   13.7441   -9.7308    0.0000 P   0  0  0  0  0  0  0  0  0  0  0  0
   17.6400  -14.9578    0.0000 P   0  0  0  0  0  0  0  0  0  0  0  0
   17.6312  -10.4747    0.0000 P   0  0  0  0  0  0  0  0  0  0  0  0
   12.6556  -14.2154    0.0000 O   0  0  0  0  0  0  0  0  0  0  0  0
    9.6638  -14.2193    0.0000 O   0  0  0  0  0  0  0  0  0  0  0  0
   11.1551  -15.7150    0.0000 O   0  0  0  0  0  0  0  0  0  0  0  0
   14.4946  -11.0301    0.0000 O   0  0  0  0  0  0  0  0  0  0  0  0
   13.0023   -8.4369    0.0000 O   0  0  0  0  0  0  0  0  0  0  0  0
   15.0432   -8.9805    0.0000 O   0  0  0  0  0  0  0  0  0  0  0  0
   18.3845  -13.6683    0.0000 O   0  0  0  0  0  0  0  0  0  0  0  0
   16.8904  -16.2562    0.0000 O   0  0  0  0  0  0  0  0  0  0  0  0
   18.9384  -15.7075    0.0000 O   0  0  0  0  0  0  0  0  0  0  0  0
   16.1486  -10.4843    0.0000 O   0  0  0  0  0  0  0  0  0  0  0  0
   19.1315  -10.4753    0.0000 O   0  0  0  0  0  0  0  0  0  0  0  0
   17.6405   -8.9797    0.0000 O   0  0  0  0  0  0  0  0  0  0  0  0
  1  2  1  0
  2  3  1  0
  3  4  1  0
  4  5  1  0
  4  6  1  0
  1  7  1  0
  1  8  1  0
  7  9  1  0
  8 10  1  0
  5 11  1  0
  6 12  1  0
  9 13  1  0
  9 14  1  0
  9 15  2  0
 10 16  1  0
 10 17  1  0
 10 18  2  0
 11 19  1  0
 11 20  1  0
 11 21  2  0
 12 22  1  0
 12 23  1  0
 12 24  2  0
M  END
>  <Name>  (219) 
EDTPH

>  <logK_Lu_z=3.0_T=25_I=1.0>  (219) 
7.42

$$$$

     RDKit          2D

 23 23  0  0  0  0  0  0  0  0999 V2000
   12.5367  -10.5719    0.0000 C   0  0  0  0  0  0  0  0  0  0  0  0
   12.5367  -11.9019    0.0000 C   0  0  0  0  0  0  0  0  0  0  0  0
   11.3849   -9.9069    0.0000 C   0  0  0  0  0  0  0  0  0  0  0  0
   11.3849  -12.5669    0.0000 C   0  0  0  0  0  0  0  0  0  0  0  0
   10.2331  -10.5719    0.0000 C   0  0  0  0  0  0  0  0  0  0  0  0
   10.2331  -11.9019    0.0000 C   0  0  0  0  0  0  0  0  0  0  0  0
   13.6886   -9.9069    0.0000 C   0  0  0  0  0  0  0  0  0  0  0  0
   13.6886   -8.5769    0.0000 C   0  0  0  0  0  0  0  0  0  0  0  0
   11.3849  -13.8969    0.0000 C   0  0  0  0  0  0  0  0  0  0  0  0
   10.2331  -14.5619    0.0000 C   0  0  0  0  0  0  0  0  0  0  0  0
   13.6886  -12.5669    0.0000 N   0  0  0  0  0  0  0  0  0  0  0  0
   14.8404  -11.9019    0.0000 C   0  0  0  0  0  0  0  0  0  0  0  0
   15.9922  -12.5669    0.0000 C   0  0  0  0  0  0  0  0  0  0  0  0
   17.1440  -11.9019    0.0000 N   0  0  0  0  0  0  0  0  0  0  0  0
   17.1440  -10.5719    0.0000 C   0  0  0  0  0  0  0  0  0  0  0  0
   18.2958   -9.9069    0.0000 C   0  0  0  0  0  0  0  0  0  0  0  0
   18.2958  -12.5669    0.0000 C   0  0  0  0  0  0  0  0  0  0  0  0
   18.2958  -13.8969    0.0000 C   0  0  0  0  0  0  0  0  0  0  0  0
   18.2958   -8.5769    0.0000 O   0  0  0  0  0  0  0  0  0  0  0  0
   19.4476  -10.5719    0.0000 O   0  0  0  0  0  0  0  0  0  0  0  0
   19.4476  -14.5619    0.0000 O   0  0  0  0  0  0  0  0  0  0  0  0
   17.1440  -14.5619    0.0000 O   0  0  0  0  0  0  0  0  0  0  0  0
   14.8404  -10.5719    0.0000 O   0  0  0  0  0  0  0  0  0  0  0  0
  2  1  2  0
  3  1  1  0
  4  2  1  0
  5  3  2  0
  6  4  2  0
  6  5  1  0
  1  7  1  0
  7  8  1  0
  4  9  1  0
  9 10  1  0
  2 11  1  0
 11 12  1  0
 12 13  1  0
 13 14  1  0
 14 15  1  0
 15 16  1  0
 14 17  1  0
 17 18  1  0
 16 19  2  0
 16 20  1  0
 18 21  2  0
 18 22  1  0
 12 23  2  0
M  END
>  <Name>  (220) 
etifenin

>  <logK_Lu_z=3.0_T=25_I=1.0>  (220) 
8.07

$$$$

     RDKit          2D

  1  0  0  0  0  0  0  0  0  0999 V2000
   13.3801   -9.8708    0.0000 F   0  0  0  0  0  0  0  0  0  0  0  0
M  CHG  1   1  -1
M  END
>  <Name>  (221) 
Fluoride

>  <logK_Lu_z=3.0_T=25_I=1.0>  (221) 
3.597

$$$$

     RDKit          2D

 23 23  0  0  0  0  0  0  0  0999 V2000
   10.3911  -15.1365    0.0000 O   0  0  0  0  0  0  0  0  0  0  0  0
   12.0295  -15.6704    0.0000 C   0  0  0  0  0  0  0  0  0  0  0  0
   12.0295  -17.3893    0.0000 C   0  0  0  0  0  0  0  0  0  0  0  0
   13.7118  -17.9159    0.0000 O   0  0  0  0  0  0  0  0  0  0  0  0
   14.7284  -16.5554    0.0000 C   0  0  0  0  0  0  0  0  0  0  0  0
   16.3303  -17.0016    0.0000 C   0  0  0  0  0  0  0  0  0  0  0  0
   17.3031  -15.6265    0.0000 N   0  0  0  0  0  0  0  0  0  0  0  0
   16.3303  -14.2515    0.0000 C   0  0  0  0  0  0  0  0  0  0  0  0
   17.2811  -12.8691    0.0000 C   0  0  0  0  0  0  0  0  0  0  0  0
   16.3303  -11.5159    0.0000 O   0  0  0  0  0  0  0  0  0  0  0  0
   14.7065  -11.9767    0.0000 C   0  0  0  0  0  0  0  0  0  0  0  0
   13.6752  -10.6016    0.0000 C   0  0  0  0  0  0  0  0  0  0  0  0
   12.0514  -11.1502    0.0000 N   0  0  0  0  0  0  0  0  0  0  0  0
   12.0149  -12.8325    0.0000 C   0  0  0  0  0  0  0  0  0  0  0  0
   10.3911  -13.4176    0.0000 C   0  0  0  0  0  0  0  0  0  0  0  0
   18.8781  -16.2688    0.0000 C   0  0  0  0  0  0  0  0  0  0  0  0
   11.1640   -9.6991    0.0000 C   0  0  0  0  0  0  0  0  0  0  0  0
   11.9770   -8.2050    0.0000 C   0  0  0  0  0  0  0  0  0  0  0  0
   13.6774   -8.1620    0.0000 O   0  0  0  0  0  0  0  0  0  0  0  0
   11.0896   -6.7538    0.0000 O   0  0  0  0  0  0  0  0  0  0  0  0
   19.1094  -17.9540    0.0000 C   0  0  0  0  0  0  0  0  0  0  0  0
   20.6845  -18.5963    0.0000 O   0  0  0  0  0  0  0  0  0  0  0  0
   17.7657  -18.9969    0.0000 O   0  0  0  0  0  0  0  0  0  0  0  0
  1  2  1  0
  2  3  1  0
  3  4  1  0
  4  5  1  0
  5  6  1  0
  6  7  1  0
  7  8  1  0
  8  9  1  0
  9 10  1  0
 10 11  1  0
 11 12  1  0
 12 13  1  0
 13 14  1  0
 14 15  1  0
 15  1  1  0
  7 16  1  0
 17 18  1  0
 18 19  2  0
 18 20  1  0
 13 17  1  0
 21 22  2  0
 21 23  1  0
 16 21  1  0
M  END
>  <Name>  (222) 
H2ba15c5

>  <logK_Lu_z=3.0_T=25_I=1.0>  (222) 
10.33

$$$$

     RDKit          2D

 26 26  0  0  0  0  0  0  0  0999 V2000
   10.1810  -13.2023    0.0000 O   0  0  0  0  0  0  0  0  0  0  0  0
   11.5406  -13.9872    0.0000 C   0  0  0  0  0  0  0  0  0  0  0  0
   12.8889  -13.1972    0.0000 C   0  0  0  0  0  0  0  0  0  0  0  0
   14.2414  -13.9780    0.0000 O   0  0  0  0  0  0  0  0  0  0  0  0
   15.6109  -13.2002    0.0000 C   0  0  0  0  0  0  0  0  0  0  0  0
   15.5997  -11.6253    0.0000 C   0  0  0  0  0  0  0  0  0  0  0  0
   16.9692  -10.8475    0.0000 N   0  0  0  0  0  0  0  0  0  0  0  0
   16.9500   -9.2866    0.0000 C   0  0  0  0  0  0  0  0  0  0  0  0
   15.5975   -8.5058    0.0000 C   0  0  0  0  0  0  0  0  0  0  0  0
   15.6075   -6.9431    0.0000 O   0  0  0  0  0  0  0  0  0  0  0  0
   14.2480   -6.1581    0.0000 C   0  0  0  0  0  0  0  0  0  0  0  0
   12.8996   -6.9482    0.0000 C   0  0  0  0  0  0  0  0  0  0  0  0
   11.5260   -6.1551    0.0000 O   0  0  0  0  0  0  0  0  0  0  0  0
   10.1858   -6.9310    0.0000 C   0  0  0  0  0  0  0  0  0  0  0  0
   10.1758   -8.4937    0.0000 C   0  0  0  0  0  0  0  0  0  0  0  0
    8.8274   -9.2838    0.0000 N   0  0  0  0  0  0  0  0  0  0  0  0
    8.8174  -10.8465    0.0000 C   0  0  0  0  0  0  0  0  0  0  0  0
   10.1910  -11.6395    0.0000 C   0  0  0  0  0  0  0  0  0  0  0  0
   18.5086  -11.1416    0.0000 C   0  0  0  0  0  0  0  0  0  0  0  0
   19.0234  -12.6218    0.0000 C   0  0  0  0  0  0  0  0  0  0  0  0
    7.2886   -8.9868    0.0000 C   0  0  0  0  0  0  0  0  0  0  0  0
    6.2621  -10.1709    0.0000 C   0  0  0  0  0  0  0  0  0  0  0  0
    4.7233   -9.8739    0.0000 O   0  0  0  0  0  0  0  0  0  0  0  0
    6.7742  -11.6520    0.0000 O   0  0  0  0  0  0  0  0  0  0  0  0
   20.5628  -12.9160    0.0000 O   0  0  0  0  0  0  0  0  0  0  0  0
   17.9990  -13.8078    0.0000 O   0  0  0  0  0  0  0  0  0  0  0  0
  1  2  1  0
  2  3  1  0
  3  4  1  0
  4  5  1  0
  5  6  1  0
  6  7  1  0
  7  8  1  0
  8  9  1  0
  9 10  1  0
 10 11  1  0
 11 12  1  0
 12 13  1  0
 13 14  1  0
 14 15  1  0
 15 16  1  0
 16 17  1  0
 17 18  1  0
 18  1  1  0
  7 19  1  0
 19 20  1  0
 16 21  1  0
 21 22  1  0
 22 23  2  0
 22 24  1  0
 20 25  1  0
 20 26  2  0
M  END
>  <Name>  (223) 
H2ba18c6

>  <logK_Lu_z=3.0_T=25_I=1.0>  (223) 
10.84

$$$$

     RDKit          2D

 35 37  0  0  0  0  0  0  0  0999 V2000
    9.1114  -13.9351    0.0000 O   0  0  0  0  0  0  0  0  0  0  0  0
    9.6442  -15.5513    0.0000 C   0  0  0  0  0  0  0  0  0  0  0  0
   10.7778  -16.8076    0.0000 C   0  0  0  0  0  0  0  0  0  0  0  0
   12.3245  -17.5046    0.0000 O   0  0  0  0  0  0  0  0  0  0  0  0
   14.0259  -17.5050    0.0000 C   0  0  0  0  0  0  0  0  0  0  0  0
   15.5814  -16.8064    0.0000 C   0  0  0  0  0  0  0  0  0  0  0  0
   16.7190  -15.5389    0.0000 N   0  0  0  0  0  0  0  0  0  0  0  0
   17.2359  -13.9407    0.0000 C   0  0  0  0  0  0  0  0  0  0  0  0
   17.0635  -12.2436    0.0000 C   0  0  0  0  0  0  0  0  0  0  0  0
   16.2122  -10.7711    0.0000 O   0  0  0  0  0  0  0  0  0  0  0  0
   14.8356   -9.7794    0.0000 C   0  0  0  0  0  0  0  0  0  0  0  0
   13.1808   -9.4258    0.0000 C   0  0  0  0  0  0  0  0  0  0  0  0
   11.5143   -9.7732    0.0000 N   0  0  0  0  0  0  0  0  0  0  0  0
   10.1389  -10.7718    0.0000 C   0  0  0  0  0  0  0  0  0  0  0  0
    9.2945  -12.2343    0.0000 C   0  0  0  0  0  0  0  0  0  0  0  0
   10.8253   -8.2233    0.0000 C   0  0  0  0  0  0  0  0  0  0  0  0
   18.1912  -16.3889    0.0000 C   0  0  0  0  0  0  0  0  0  0  0  0
   18.1908  -18.0903    0.0000 C   0  0  0  0  0  0  0  0  0  0  0  0
   16.7176  -18.9413    0.0000 C   0  0  0  0  0  0  0  0  0  0  0  0
   19.6630  -18.9402    0.0000 N   0  0  0  0  0  0  0  0  0  0  0  0
   16.7172  -20.6426    0.0000 C   0  0  0  0  0  0  0  0  0  0  0  0
   19.6626  -20.6416    0.0000 C   0  0  0  0  0  0  0  0  0  0  0  0
   18.1894  -21.4926    0.0000 C   0  0  0  0  0  0  0  0  0  0  0  0
    9.1343   -8.0457    0.0000 C   0  0  0  0  0  0  0  0  0  0  0  0
    8.4454   -6.4958    0.0000 N   0  0  0  0  0  0  0  0  0  0  0  0
    8.1332   -9.4178    0.0000 C   0  0  0  0  0  0  0  0  0  0  0  0
    6.7543   -6.3182    0.0000 C   0  0  0  0  0  0  0  0  0  0  0  0
    6.4481   -9.2299    0.0000 C   0  0  0  0  0  0  0  0  0  0  0  0
    5.7532   -7.6903    0.0000 C   0  0  0  0  0  0  0  0  0  0  0  0
    6.0557   -4.7628    0.0000 C   0  0  0  0  0  0  0  0  0  0  0  0
   21.1355  -21.4919    0.0000 C   0  0  0  0  0  0  0  0  0  0  0  0
   22.6081  -20.6406    0.0000 O   0  0  0  0  0  0  0  0  0  0  0  0
   21.1345  -23.1929    0.0000 O   0  0  0  0  0  0  0  0  0  0  0  0
    7.0575   -3.3911    0.0000 O   0  0  0  0  0  0  0  0  0  0  0  0
    4.3653   -4.5856    0.0000 O   0  0  0  0  0  0  0  0  0  0  0  0
  1  2  1  0
  2  3  1  0
  3  4  1  0
  4  5  1  0
  5  6  1  0
  6  7  1  0
  7  8  1  0
  8  9  1  0
  9 10  1  0
 10 11  1  0
 11 12  1  0
 12 13  1  0
 13 14  1  0
 14 15  1  0
 15  1  1  0
 13 16  1  0
  7 17  1  0
 19 18  2  0
 20 18  1  0
 21 19  1  0
 22 20  2  0
 23 21  2  0
 23 22  1  0
 17 18  1  0
 25 24  2  0
 26 24  1  0
 27 25  1  0
 28 26  2  0
 29 27  2  0
 29 28  1  0
 16 24  1  0
 27 30  1  0
 22 31  1  0
 31 32  2  0
 31 33  1  0
 30 34  2  0
 30 35  1  0
M  END
>  <Name>  (224) 
H2bp15c5

>  <logK_Lu_z=3.0_T=25_I=1.0>  (224) 
10.03

$$$$

     RDKit          2D

 36 38  0  0  0  0  0  0  0  0999 V2000
   23.9291   -9.5511    0.0000 C   0  0  0  0  0  0  0  0  0  0  0  0
   22.9076  -10.7337    0.0000 C   0  0  0  0  0  0  0  0  0  0  0  0
   23.4157   -8.0751    0.0000 C   0  0  0  0  0  0  0  0  0  0  0  0
   21.3726  -10.4404    0.0000 N   0  0  0  0  0  0  0  0  0  0  0  0
   21.8807   -7.7817    0.0000 C   0  0  0  0  0  0  0  0  0  0  0  0
   20.8592   -8.9644    0.0000 C   0  0  0  0  0  0  0  0  0  0  0  0
   12.5552  -11.0192    0.0000 O   0  0  0  0  0  0  0  0  0  0  0  0
   13.9109  -11.8019    0.0000 C   0  0  0  0  0  0  0  0  0  0  0  0
   15.2554  -11.0141    0.0000 C   0  0  0  0  0  0  0  0  0  0  0  0
   16.6041  -11.7927    0.0000 O   0  0  0  0  0  0  0  0  0  0  0  0
   17.9697  -11.0171    0.0000 C   0  0  0  0  0  0  0  0  0  0  0  0
   17.9586   -9.4467    0.0000 C   0  0  0  0  0  0  0  0  0  0  0  0
   19.3242   -8.6710    0.0000 N   0  0  0  0  0  0  0  0  0  0  0  0
   19.3050   -7.1146    0.0000 C   0  0  0  0  0  0  0  0  0  0  0  0
   17.9563   -6.3359    0.0000 C   0  0  0  0  0  0  0  0  0  0  0  0
   17.9663   -4.7776    0.0000 O   0  0  0  0  0  0  0  0  0  0  0  0
   16.6106   -3.9949    0.0000 C   0  0  0  0  0  0  0  0  0  0  0  0
   15.2661   -4.7827    0.0000 C   0  0  0  0  0  0  0  0  0  0  0  0
   13.8963   -3.9919    0.0000 O   0  0  0  0  0  0  0  0  0  0  0  0
   12.5599   -4.7656    0.0000 C   0  0  0  0  0  0  0  0  0  0  0  0
   12.5499   -6.3240    0.0000 C   0  0  0  0  0  0  0  0  0  0  0  0
   11.2053   -7.1117    0.0000 N   0  0  0  0  0  0  0  0  0  0  0  0
   11.1954   -8.6701    0.0000 C   0  0  0  0  0  0  0  0  0  0  0  0
   12.5651   -9.4609    0.0000 C   0  0  0  0  0  0  0  0  0  0  0  0
    9.1602   -5.3386    0.0000 C   0  0  0  0  0  0  0  0  0  0  0  0
    9.6709   -6.8156    0.0000 C   0  0  0  0  0  0  0  0  0  0  0  0
    7.6257   -5.0425    0.0000 C   0  0  0  0  0  0  0  0  0  0  0  0
    8.6472   -7.9964    0.0000 N   0  0  0  0  0  0  0  0  0  0  0  0
    6.6020   -6.2233    0.0000 C   0  0  0  0  0  0  0  0  0  0  0  0
    7.1128   -7.7002    0.0000 C   0  0  0  0  0  0  0  0  0  0  0  0
    6.0891   -8.8810    0.0000 C   0  0  0  0  0  0  0  0  0  0  0  0
    4.5547   -8.5848    0.0000 O   0  0  0  0  0  0  0  0  0  0  0  0
    6.5998  -10.3579    0.0000 O   0  0  0  0  0  0  0  0  0  0  0  0
   23.4210  -12.2097    0.0000 C   0  0  0  0  0  0  0  0  0  0  0  0
   24.9560  -12.5031    0.0000 O   0  0  0  0  0  0  0  0  0  0  0  0
   22.3995  -13.3924    0.0000 O   0  0  0  0  0  0  0  0  0  0  0  0
  2  1  2  0
  3  1  1  0
  4  2  1  0
  5  3  2  0
  6  4  2  0
  6  5  1  0
  7  8  1  0
  8  9  1  0
  9 10  1  0
 10 11  1  0
 11 12  1  0
 12 13  1  0
 13 14  1  0
 14 15  1  0
 15 16  1  0
 16 17  1  0
 17 18  1  0
 18 19  1  0
 19 20  1  0
 20 21  1  0
 21 22  1  0
 22 23  1  0
 23 24  1  0
 24  7  1  0
 26 25  2  0
 27 25  1  0
 28 26  1  0
 29 27  2  0
 30 28  2  0
 30 29  1  0
 22 26  1  0
 31 32  2  0
 31 33  1  0
 30 31  1  0
  6 13  1  0
 34 35  1  0
 34 36  2  0
  2 34  1  0
M  END
>  <Name>  (225) 
H2bp18c6

>  <logK_Lu_z=3.0_T=25_I=1.0>  (225) 
8.25

$$$$

     RDKit          2D

 33 34  0  0  0  0  0  0  0  0999 V2000
   13.0682   -5.7946    0.0000 N   0  0  0  0  0  0  0  0  0  0  0  0
   14.5459   -6.6478    0.0000 C   0  0  0  0  0  0  0  0  0  0  0  0
   16.0275   -5.7938    0.0000 C   0  0  0  0  0  0  0  0  0  0  0  0
   17.5052   -6.6469    0.0000 N   0  0  0  0  0  0  0  0  0  0  0  0
   17.4910   -8.3481    0.0000 C   0  0  0  0  0  0  0  0  0  0  0  0
   16.0397   -9.1853    0.0000 C   0  0  0  0  0  0  0  0  0  0  0  0
   16.0255  -10.8865    0.0000 N   0  0  0  0  0  0  0  0  0  0  0  0
   14.5622  -11.7442    0.0000 C   0  0  0  0  0  0  0  0  0  0  0  0
   13.0846  -10.8911    0.0000 C   0  0  0  0  0  0  0  0  0  0  0  0
   13.0803   -9.1861    0.0000 N   0  0  0  0  0  0  0  0  0  0  0  0
   11.6026   -8.3330    0.0000 C   0  0  0  0  0  0  0  0  0  0  0  0
   11.6169   -6.6318    0.0000 C   0  0  0  0  0  0  0  0  0  0  0  0
   12.2117   -4.3270    0.0000 C   0  0  0  0  0  0  0  0  0  0  0  0
   11.6064  -10.0316    0.0000 C   0  0  0  0  0  0  0  0  0  0  0  0
   16.8758  -12.3576    0.0000 C   0  0  0  0  0  0  0  0  0  0  0  0
   18.9789   -5.8010    0.0000 C   0  0  0  0  0  0  0  0  0  0  0  0
   20.4483   -6.6544    0.0000 P   0  0  0  0  0  0  0  0  0  0  0  0
   21.3017   -5.1850    0.0000 O   0  0  0  0  0  0  0  0  0  0  0  0
   19.5950   -8.1238    0.0000 O   0  0  0  0  0  0  0  0  0  0  0  0
   21.9178   -7.5078    0.0000 C   0  0  0  0  0  0  0  0  0  0  0  0
   23.3915   -6.6619    0.0000 C   0  0  0  0  0  0  0  0  0  0  0  0
   23.3958   -4.9626    0.0000 C   0  0  0  0  0  0  0  0  0  0  0  0
   24.8609   -7.5152    0.0000 C   0  0  0  0  0  0  0  0  0  0  0  0
   24.8696   -4.1167    0.0000 C   0  0  0  0  0  0  0  0  0  0  0  0
   26.3347   -6.6693    0.0000 C   0  0  0  0  0  0  0  0  0  0  0  0
   26.3390   -4.9701    0.0000 C   0  0  0  0  0  0  0  0  0  0  0  0
   27.8127   -4.1242    0.0000 N   0  0  0  0  0  0  0  0  0  0  0  0
   13.0544   -2.8515    0.0000 O   0  0  0  0  0  0  0  0  0  0  0  0
   10.5125   -4.3349    0.0000 O   0  0  0  0  0  0  0  0  0  0  0  0
   18.5750  -12.3569    0.0000 O   0  0  0  0  0  0  0  0  0  0  0  0
   16.0268  -13.8296    0.0000 O   0  0  0  0  0  0  0  0  0  0  0  0
   10.1372   -9.1778    0.0000 O   0  0  0  0  0  0  0  0  0  0  0  0
   11.6016  -11.7308    0.0000 O   0  0  0  0  0  0  0  0  0  0  0  0
  1  2  1  0
  2  3  1  0
  3  4  1  0
  4  5  1  0
  5  6  1  0
  6  7  1  0
  7  8  1  0
  8  9  1  0
  9 10  1  0
 10 11  1  0
 11 12  1  0
 12  1  1  0
  1 13  1  0
 10 14  1  0
  7 15  1  0
  4 16  1  0
 16 17  1  0
 17 18  2  0
 17 19  1  0
 17 20  1  0
 22 21  2  0
 23 21  1  0
 24 22  1  0
 25 23  2  0
 26 24  2  0
 26 25  1  0
 20 21  1  0
 26 27  1  0
 13 28  2  0
 13 29  1  0
 15 30  2  0
 15 31  1  0
 14 32  1  0
 14 33  2  0
M  END
>  <Name>  (226) 
H4do3apABn

>  <logK_Lu_z=3.0_T=25_I=1.0>  (226) 
24.0

$$$$

     RDKit          2D

 26 26  0  0  0  0  0  0  0  0999 V2000
    7.9067   -9.3439    0.0000 N   0  0  0  0  0  0  0  0  0  0  0  0
    9.3844  -10.1971    0.0000 C   0  0  0  0  0  0  0  0  0  0  0  0
   10.8660   -9.3431    0.0000 C   0  0  0  0  0  0  0  0  0  0  0  0
   12.3437  -10.1963    0.0000 N   0  0  0  0  0  0  0  0  0  0  0  0
   12.3295  -11.8974    0.0000 C   0  0  0  0  0  0  0  0  0  0  0  0
   10.8782  -12.7346    0.0000 C   0  0  0  0  0  0  0  0  0  0  0  0
   10.8640  -14.4358    0.0000 N   0  0  0  0  0  0  0  0  0  0  0  0
    9.4008  -15.2935    0.0000 C   0  0  0  0  0  0  0  0  0  0  0  0
    7.9231  -14.4404    0.0000 C   0  0  0  0  0  0  0  0  0  0  0  0
    7.9189  -12.7354    0.0000 N   0  0  0  0  0  0  0  0  0  0  0  0
    6.4412  -11.8823    0.0000 C   0  0  0  0  0  0  0  0  0  0  0  0
    6.4554  -10.1811    0.0000 C   0  0  0  0  0  0  0  0  0  0  0  0
    7.0502   -7.8763    0.0000 C   0  0  0  0  0  0  0  0  0  0  0  0
    6.4449  -13.5809    0.0000 C   0  0  0  0  0  0  0  0  0  0  0  0
   11.7143  -15.9070    0.0000 C   0  0  0  0  0  0  0  0  0  0  0  0
   13.8175   -9.3504    0.0000 C   0  0  0  0  0  0  0  0  0  0  0  0
   15.2869  -10.2037    0.0000 P   0  0  0  0  0  0  0  0  0  0  0  0
   16.1403   -8.7343    0.0000 O   0  0  0  0  0  0  0  0  0  0  0  0
   14.4336  -11.6732    0.0000 O   0  0  0  0  0  0  0  0  0  0  0  0
   16.7563  -11.0571    0.0000 O   0  0  0  0  0  0  0  0  0  0  0  0
    7.8929   -6.4008    0.0000 O   0  0  0  0  0  0  0  0  0  0  0  0
    5.3510   -7.8843    0.0000 O   0  0  0  0  0  0  0  0  0  0  0  0
    4.9757  -12.7272    0.0000 O   0  0  0  0  0  0  0  0  0  0  0  0
    6.4402  -15.2802    0.0000 O   0  0  0  0  0  0  0  0  0  0  0  0
   13.4136  -15.9062    0.0000 O   0  0  0  0  0  0  0  0  0  0  0  0
   10.8653  -17.3790    0.0000 O   0  0  0  0  0  0  0  0  0  0  0  0
  1  2  1  0
  2  3  1  0
  3  4  1  0
  4  5  1  0
  5  6  1  0
  6  7  1  0
  7  8  1  0
  8  9  1  0
  9 10  1  0
 10 11  1  0
 11 12  1  0
 12  1  1  0
  1 13  1  0
 10 14  1  0
  7 15  1  0
  4 16  1  0
 16 17  1  0
 17 18  2  0
 17 19  1  0
 17 20  1  0
 13 21  2  0
 13 22  1  0
 14 23  2  0
 14 24  1  0
 15 25  2  0
 15 26  1  0
M  END
>  <Name>  (227) 
H5do3ap

>  <logK_Lu_z=3.0_T=25_I=1.0>  (227) 
28.6

$$$$

     RDKit          2D

 30 30  0  0  0  0  0  0  0  0999 V2000
   10.9353   -9.8647    0.0000 N   0  0  0  0  0  0  0  0  0  0  0  0
   12.4131  -10.7179    0.0000 C   0  0  0  0  0  0  0  0  0  0  0  0
   13.8947   -9.8639    0.0000 C   0  0  0  0  0  0  0  0  0  0  0  0
   15.3723  -10.7170    0.0000 N   0  0  0  0  0  0  0  0  0  0  0  0
   15.3581  -12.4182    0.0000 C   0  0  0  0  0  0  0  0  0  0  0  0
   13.9068  -13.2554    0.0000 C   0  0  0  0  0  0  0  0  0  0  0  0
   13.8926  -14.9566    0.0000 N   0  0  0  0  0  0  0  0  0  0  0  0
   12.4294  -15.8143    0.0000 C   0  0  0  0  0  0  0  0  0  0  0  0
   10.9517  -14.9612    0.0000 C   0  0  0  0  0  0  0  0  0  0  0  0
   10.9475  -13.2562    0.0000 N   0  0  0  0  0  0  0  0  0  0  0  0
    9.4698  -12.4031    0.0000 C   0  0  0  0  0  0  0  0  0  0  0  0
    9.4841  -10.7019    0.0000 C   0  0  0  0  0  0  0  0  0  0  0  0
   10.0788   -8.3971    0.0000 C   0  0  0  0  0  0  0  0  0  0  0  0
    9.4736  -14.1017    0.0000 C   0  0  0  0  0  0  0  0  0  0  0  0
   14.7429  -16.4278    0.0000 C   0  0  0  0  0  0  0  0  0  0  0  0
   16.8461   -9.8712    0.0000 C   0  0  0  0  0  0  0  0  0  0  0  0
   18.3155  -10.7245    0.0000 P   0  0  0  0  0  0  0  0  0  0  0  0
   19.1689   -9.2551    0.0000 O   0  0  0  0  0  0  0  0  0  0  0  0
   17.4622  -12.1939    0.0000 O   0  0  0  0  0  0  0  0  0  0  0  0
   19.7849  -11.5779    0.0000 C   0  0  0  0  0  0  0  0  0  0  0  0
   19.7806  -13.2771    0.0000 C   0  0  0  0  0  0  0  0  0  0  0  0
   10.9216   -6.9216    0.0000 O   0  0  0  0  0  0  0  0  0  0  0  0
    8.3796   -8.4051    0.0000 O   0  0  0  0  0  0  0  0  0  0  0  0
   16.4422  -16.4270    0.0000 O   0  0  0  0  0  0  0  0  0  0  0  0
   13.8940  -17.8997    0.0000 O   0  0  0  0  0  0  0  0  0  0  0  0
    8.0044  -13.2479    0.0000 O   0  0  0  0  0  0  0  0  0  0  0  0
    9.4688  -15.8009    0.0000 O   0  0  0  0  0  0  0  0  0  0  0  0
   21.2500  -14.1305    0.0000 C   0  0  0  0  0  0  0  0  0  0  0  0
   22.7238  -13.2846    0.0000 O   0  0  0  0  0  0  0  0  0  0  0  0
   21.2457  -15.8297    0.0000 O   0  0  0  0  0  0  0  0  0  0  0  0
  1  2  1  0
  2  3  1  0
  3  4  1  0
  4  5  1  0
  5  6  1  0
  6  7  1  0
  7  8  1  0
  8  9  1  0
  9 10  1  0
 10 11  1  0
 11 12  1  0
 12  1  1  0
  1 13  1  0
 10 14  1  0
  7 15  1  0
  4 16  1  0
 16 17  1  0
 17 18  2  0
 17 19  1  0
 17 20  1  0
 20 21  1  0
 13 22  2  0
 13 23  1  0
 15 24  2  0
 15 25  1  0
 14 26  1  0
 14 27  2  0
 21 28  1  0
 28 29  2  0
 28 30  1  0
M  END
>  <Name>  (228) 
H5do3apPrA

>  <logK_Lu_z=3.0_T=25_I=1.0>  (228) 
25.5

$$$$

     RDKit          2D

 31 31  0  0  0  0  0  0  0  0999 V2000
   11.5593  -12.9247    0.0000 N   0  0  0  0  0  0  0  0  0  0  0  0
   12.3703  -14.3295    0.0000 C   0  0  0  0  0  0  0  0  0  0  0  0
   13.7178  -15.2485    0.0000 C   0  0  0  0  0  0  0  0  0  0  0  0
   15.3277  -15.4882    0.0000 C   0  0  0  0  0  0  0  0  0  0  0  0
   16.8892  -15.0145    0.0000 N   0  0  0  0  0  0  0  0  0  0  0  0
   18.0802  -13.8990    0.0000 C   0  0  0  0  0  0  0  0  0  0  0  0
   18.6775  -12.3850    0.0000 C   0  0  0  0  0  0  0  0  0  0  0  0
   18.5554  -10.7585    0.0000 N   0  0  0  0  0  0  0  0  0  0  0  0
   17.7443   -9.3537    0.0000 C   0  0  0  0  0  0  0  0  0  0  0  0
   16.3912   -8.4249    0.0000 C   0  0  0  0  0  0  0  0  0  0  0  0
   14.7813   -8.1852    0.0000 C   0  0  0  0  0  0  0  0  0  0  0  0
   13.2255   -8.6687    0.0000 N   0  0  0  0  0  0  0  0  0  0  0  0
   12.0288   -9.7744    0.0000 C   0  0  0  0  0  0  0  0  0  0  0  0
   11.4315  -11.2884    0.0000 C   0  0  0  0  0  0  0  0  0  0  0  0
    9.9976  -13.3991    0.0000 C   0  0  0  0  0  0  0  0  0  0  0  0
    9.6290  -14.9816    0.0000 C   0  0  0  0  0  0  0  0  0  0  0  0
   20.1117  -10.2747    0.0000 C   0  0  0  0  0  0  0  0  0  0  0  0
   20.4746   -8.6824    0.0000 C   0  0  0  0  0  0  0  0  0  0  0  0
   12.4090   -7.2545    0.0000 C   0  0  0  0  0  0  0  0  0  0  0  0
   13.2167   -5.8452    0.0000 C   0  0  0  0  0  0  0  0  0  0  0  0
   17.7057  -16.4286    0.0000 C   0  0  0  0  0  0  0  0  0  0  0  0
   16.8980  -17.8380    0.0000 P   0  0  0  0  0  0  0  0  0  0  0  0
   15.4829  -17.0205    0.0000 O   0  0  0  0  0  0  0  0  0  0  0  0
   18.3072  -18.6464    0.0000 O   0  0  0  0  0  0  0  0  0  0  0  0
   16.0805  -19.2531    0.0000 O   0  0  0  0  0  0  0  0  0  0  0  0
   19.2871   -7.5830    0.0000 O   0  0  0  0  0  0  0  0  0  0  0  0
   22.0407   -8.1930    0.0000 O   0  0  0  0  0  0  0  0  0  0  0  0
   14.8509   -5.8447    0.0000 O   0  0  0  0  0  0  0  0  0  0  0  0
   12.4000   -4.4305    0.0000 O   0  0  0  0  0  0  0  0  0  0  0  0
   10.8222  -16.0908    0.0000 O   0  0  0  0  0  0  0  0  0  0  0  0
    8.0686  -15.4809    0.0000 O   0  0  0  0  0  0  0  0  0  0  0  0
  1  2  1  0
  2  3  1  0
  3  4  1  0
  4  5  1  0
  5  6  1  0
  6  7  1  0
  7  8  1  0
  8  9  1  0
  9 10  1  0
 10 11  1  0
 11 12  1  0
 12 13  1  0
 13 14  1  0
 14  1  1  0
  1 15  1  0
 15 16  1  0
  8 17  1  0
 17 18  1  0
 12 19  1  0
 19 20  1  0
  5 21  1  0
 21 22  1  0
 22 23  2  0
 22 24  1  0
 22 25  1  0
 18 26  1  0
 18 27  2  0
 20 28  1  0
 20 29  2  0
 16 30  1  0
 16 31  2  0
M  END
>  <Name>  (229) 
H5te3a1p

>  <logK_Lu_z=3.0_T=25_I=1.0>  (229) 
15.49

$$$$

     RDKit          2D

 33 33  0  0  0  0  0  0  0  0999 V2000
    9.5614  -10.2994    0.0000 N   0  0  0  0  0  0  0  0  0  0  0  0
   11.4753   -9.5444    0.0000 C   0  0  0  0  0  0  0  0  0  0  0  0
   12.5188   -7.8769    0.0000 C   0  0  0  0  0  0  0  0  0  0  0  0
   14.1704   -6.8052    0.0000 C   0  0  0  0  0  0  0  0  0  0  0  0
   16.2558   -7.1844    0.0000 N   0  0  0  0  0  0  0  0  0  0  0  0
   16.8577   -9.1660    0.0000 C   0  0  0  0  0  0  0  0  0  0  0  0
   18.6404  -10.1630    0.0000 C   0  0  0  0  0  0  0  0  0  0  0  0
   18.9026  -12.2774    0.0000 N   0  0  0  0  0  0  0  0  0  0  0  0
   17.4464  -13.7451    0.0000 C   0  0  0  0  0  0  0  0  0  0  0  0
   15.3997  -13.7909    0.0000 C   0  0  0  0  0  0  0  0  0  0  0  0
   14.2241  -15.5463    0.0000 C   0  0  0  0  0  0  0  0  0  0  0  0
   12.0542  -15.4020    0.0000 N   0  0  0  0  0  0  0  0  0  0  0  0
   11.4057  -13.4459    0.0000 C   0  0  0  0  0  0  0  0  0  0  0  0
    9.5614  -12.5088    0.0000 C   0  0  0  0  0  0  0  0  0  0  0  0
   17.2757   -5.3507    0.0000 C   0  0  0  0  0  0  0  0  0  0  0  0
   19.3311   -5.0498    0.0000 C   0  0  0  0  0  0  0  0  0  0  0  0
   20.9247  -12.9162    0.0000 C   0  0  0  0  0  0  0  0  0  0  0  0
   11.1180  -17.2542    0.0000 C   0  0  0  0  0  0  0  0  0  0  0  0
    7.5957   -9.6517    0.0000 C   0  0  0  0  0  0  0  0  0  0  0  0
   21.6198  -14.9040    0.0000 P   0  0  0  0  0  0  0  0  0  0  0  0
    9.0872  -17.7672    0.0000 P   0  0  0  0  0  0  0  0  0  0  0  0
    6.7976   -7.7186    0.0000 P   0  0  0  0  0  0  0  0  0  0  0  0
   20.0993   -3.0735    0.0000 O   0  0  0  0  0  0  0  0  0  0  0  0
   20.7073   -6.6723    0.0000 O   0  0  0  0  0  0  0  0  0  0  0  0
   22.5912  -16.8415    0.0000 O   0  0  0  0  0  0  0  0  0  0  0  0
   23.6392  -14.1358    0.0000 O   0  0  0  0  0  0  0  0  0  0  0  0
   19.8133  -16.0390    0.0000 O   0  0  0  0  0  0  0  0  0  0  0  0
    7.0352  -18.4500    0.0000 O   0  0  0  0  0  0  0  0  0  0  0  0
    9.6160  -19.8570    0.0000 O   0  0  0  0  0  0  0  0  0  0  0  0
    8.2671  -15.7953    0.0000 O   0  0  0  0  0  0  0  0  0  0  0  0
    5.8121   -5.7977    0.0000 O   0  0  0  0  0  0  0  0  0  0  0  0
    4.8196   -8.5650    0.0000 O   0  0  0  0  0  0  0  0  0  0  0  0
    8.6701   -6.6732    0.0000 O   0  0  0  0  0  0  0  0  0  0  0  0
  1  2  1  0
  2  3  1  0
  3  4  1  0
  4  5  1  0
  5  6  1  0
  6  7  1  0
  7  8  1  0
  8  9  1  0
  9 10  1  0
 10 11  1  0
 11 12  1  0
 12 13  1  0
 13 14  1  0
 14  1  1  0
  5 15  1  0
 15 16  1  0
  8 17  1  0
 12 18  1  0
  1 19  1  0
 17 20  1  0
 18 21  1  0
 19 22  1  0
 16 23  1  0
 16 24  2  0
 20 25  2  0
 20 26  1  0
 20 27  1  0
 21 28  2  0
 21 29  1  0
 21 30  1  0
 22 31  2  0
 22 32  1  0
 22 33  1  0
M  END
>  <Name>  (230) 
H7te3p1a

>  <logK_Lu_z=3.0_T=25_I=1.0>  (230) 
19.9

$$$$

     RDKit          2D

 17 17  0  0  0  0  0  0  0  0999 V2000
   19.4786  -12.6150    0.0000 C   0  0  0  0  0  0  0  0  0  0  0  0
   19.4786  -13.9450    0.0000 C   0  0  0  0  0  0  0  0  0  0  0  0
   18.3268  -11.9500    0.0000 C   0  0  0  0  0  0  0  0  0  0  0  0
   18.3268  -14.6100    0.0000 C   0  0  0  0  0  0  0  0  0  0  0  0
   17.1750  -12.6150    0.0000 C   0  0  0  0  0  0  0  0  0  0  0  0
   17.1750  -13.9450    0.0000 C   0  0  0  0  0  0  0  0  0  0  0  0
   16.0232  -11.9500    0.0000 C   0  0  0  0  0  0  0  0  0  0  0  0
   18.3268  -10.6200    0.0000 O   0  0  0  0  0  0  0  0  0  0  0  0
   14.8713  -12.6150    0.0000 N   0  0  0  0  0  0  0  0  0  0  0  0
   13.7195  -11.9500    0.0000 C   0  0  0  0  0  0  0  0  0  0  0  0
   13.7195  -10.6200    0.0000 C   0  0  0  0  0  0  0  0  0  0  0  0
   14.8713  -13.9450    0.0000 C   0  0  0  0  0  0  0  0  0  0  0  0
   13.7195  -14.6100    0.0000 C   0  0  0  0  0  0  0  0  0  0  0  0
   14.8713   -9.9550    0.0000 O   0  0  0  0  0  0  0  0  0  0  0  0
   12.5677   -9.9550    0.0000 O   0  0  0  0  0  0  0  0  0  0  0  0
   12.5677  -13.9450    0.0000 O   0  0  0  0  0  0  0  0  0  0  0  0
   13.7195  -15.9400    0.0000 O   0  0  0  0  0  0  0  0  0  0  0  0
  2  1  2  0
  3  1  1  0
  4  2  1  0
  5  3  2  0
  6  4  2  0
  6  5  1  0
  5  7  1  0
  3  8  1  0
  7  9  1  0
  9 10  1  0
 10 11  1  0
  9 12  1  0
 12 13  1  0
 11 14  2  0
 11 15  1  0
 13 16  2  0
 13 17  1  0
M  END
>  <Name>  (231) 
HBIDA

>  <logK_Lu_z=3.0_T=25_I=1.0>  (231) 
14.87

$$$$

     RDKit          2D

 12 11  0  0  0  0  0  0  0  0999 V2000
   20.9335  -11.4964    0.0000 N   0  0  0  0  0  0  0  0  0  0  0  0
   23.2741  -10.1451    0.0000 C   0  0  0  0  0  0  0  0  0  0  0  0
   25.6147  -11.4964    0.0000 C   0  0  0  0  0  0  0  0  0  0  0  0
   18.5928  -10.1451    0.0000 C   0  0  0  0  0  0  0  0  0  0  0  0
   16.2522  -11.4964    0.0000 C   0  0  0  0  0  0  0  0  0  0  0  0
   20.9335  -14.1992    0.0000 C   0  0  0  0  0  0  0  0  0  0  0  0
   23.2741  -15.5505    0.0000 C   0  0  0  0  0  0  0  0  0  0  0  0
   27.9553  -10.1451    0.0000 O   0  0  0  0  0  0  0  0  0  0  0  0
   25.6147  -14.1992    0.0000 O   0  0  0  0  0  0  0  0  0  0  0  0
   13.9116  -10.1451    0.0000 O   0  0  0  0  0  0  0  0  0  0  0  0
   16.2522  -14.1992    0.0000 O   0  0  0  0  0  0  0  0  0  0  0  0
   23.2741  -18.2533    0.0000 O   0  0  0  0  0  0  0  0  0  0  0  0
  1  2  1  0
  2  3  1  0
  1  4  1  0
  4  5  1  0
  1  6  1  0
  6  7  1  0
  3  8  1  0
  3  9  2  0
  5 10  1  0
  5 11  2  0
  7 12  1  0
M  END
>  <Name>  (232) 
HIMDA

>  <logK_Lu_z=3.0_T=25_I=1.0>  (232) 
9.4

$$$$

     RDKit          2D

  9  8  0  0  0  0  0  0  0  0999 V2000
    7.7018  -10.4764    0.0000 C   0  0  0  0  0  0  0  0  0  0  0  0
    9.6606   -9.3454    0.0000 C   0  0  0  0  0  0  0  0  0  0  0  0
   11.6194  -10.4764    0.0000 C   0  0  0  0  0  0  0  0  0  0  0  0
   11.6194  -12.7382    0.0000 C   0  0  0  0  0  0  0  0  0  0  0  0
   13.5782   -9.3454    0.0000 C   0  0  0  0  0  0  0  0  0  0  0  0
   13.5782   -7.0836    0.0000 O   0  0  0  0  0  0  0  0  0  0  0  0
   15.5370  -10.4764    0.0000 O   0  0  0  0  0  0  0  0  0  0  0  0
    5.7430   -9.3454    0.0000 O   0  0  0  0  0  0  0  0  0  0  0  0
    7.7018  -12.7382    0.0000 O   0  0  0  0  0  0  0  0  0  0  0  0
  1  2  1  0
  2  3  1  0
  3  4  2  0
  3  5  1  0
  5  6  2  0
  5  7  1  0
  1  8  1  0
  1  9  2  0
M  END
>  <Name>  (233) 
Itaconic

>  <logK_Lu_z=3.0_T=25_I=1.0>  (233) 
2.8

$$$$

     RDKit          2D

 22 22  0  0  0  0  0  0  0  0999 V2000
    9.5951  -14.3194    0.0000 C   0  0  0  0  0  0  0  0  0  0  0  0
   11.2972  -14.7755    0.0000 C   0  0  0  0  0  0  0  0  0  0  0  0
    8.3586   -9.6857    0.0000 C   0  0  0  0  0  0  0  0  0  0  0  0
    7.9025  -11.3878    0.0000 C   0  0  0  0  0  0  0  0  0  0  0  0
   14.6849  -11.3808    0.0000 C   0  0  0  0  0  0  0  0  0  0  0  0
   14.2288  -13.0829    0.0000 C   0  0  0  0  0  0  0  0  0  0  0  0
   11.2902   -7.9931    0.0000 C   0  0  0  0  0  0  0  0  0  0  0  0
   12.9923   -8.4492    0.0000 C   0  0  0  0  0  0  0  0  0  0  0  0
   14.2294   -9.6754    0.0000 N   0  0  0  0  0  0  0  0  0  0  0  0
    9.6057   -8.4365    0.0000 N   0  0  0  0  0  0  0  0  0  0  0  0
    8.3459  -13.0723    0.0000 O   0  0  0  0  0  0  0  0  0  0  0  0
   13.0026  -14.3201    0.0000 O   0  0  0  0  0  0  0  0  0  0  0  0
    6.1382  -11.3884    0.0000 O   0  0  0  0  0  0  0  0  0  0  0  0
   15.7565   -8.7937    0.0000 C   0  0  0  0  0  0  0  0  0  0  0  0
   17.2842   -9.6764    0.0000 C   0  0  0  0  0  0  0  0  0  0  0  0
    8.7241   -6.9094    0.0000 C   0  0  0  0  0  0  0  0  0  0  0  0
    9.5964   -5.3877    0.0000 C   0  0  0  0  0  0  0  0  0  0  0  0
   17.2848  -11.4408    0.0000 O   0  0  0  0  0  0  0  0  0  0  0  0
   18.8113   -8.7948    0.0000 O   0  0  0  0  0  0  0  0  0  0  0  0
   11.3502   -5.3932    0.0000 O   0  0  0  0  0  0  0  0  0  0  0  0
    8.7148   -3.8606    0.0000 O   0  0  0  0  0  0  0  0  0  0  0  0
   15.7565  -13.9656    0.0000 O   0  0  0  0  0  0  0  0  0  0  0  0
  1  2  1  0
  3  4  1  0
  5  6  1  0
  7  8  1  0
  8  9  1  0
  5  9  1  0
  7 10  1  0
  3 10  1  0
  4 11  1  0
  1 11  1  0
  6 12  1  0
  2 12  1  0
  4 13  2  0
  9 14  1  0
 14 15  1  0
 10 16  1  0
 16 17  1  0
 15 18  1  0
 15 19  2  0
 17 20  1  0
 17 21  2  0
  6 22  2  0
M  END
>  <Name>  (234) 
K2-A2-12C4-1

>  <logK_Lu_z=3.0_T=25_I=1.0>  (234) 
6.8

$$$$

     RDKit          2D

 25 25  0  0  0  0  0  0  0  0999 V2000
    7.0914   -9.6842    0.0000 C   0  0  0  0  0  0  0  0  0  0  0  0
    8.5103   -8.1115    0.0000 C   0  0  0  0  0  0  0  0  0  0  0  0
   12.5655   -7.2452    0.0000 C   0  0  0  0  0  0  0  0  0  0  0  0
   14.5250   -8.1133    0.0000 C   0  0  0  0  0  0  0  0  0  0  0  0
   16.3617  -13.8205    0.0000 C   0  0  0  0  0  0  0  0  0  0  0  0
   16.6041  -11.7144    0.0000 C   0  0  0  0  0  0  0  0  0  0  0  0
   11.5194  -17.3537    0.0000 C   0  0  0  0  0  0  0  0  0  0  0  0
   13.5909  -16.9113    0.0000 C   0  0  0  0  0  0  0  0  0  0  0  0
   15.3208  -15.6502    0.0000 N   0  0  0  0  0  0  0  0  0  0  0  0
   15.9421   -9.6873    0.0000 N   0  0  0  0  0  0  0  0  0  0  0  0
   16.9011  -17.0813    0.0000 C   0  0  0  0  0  0  0  0  0  0  0  0
   16.4670  -19.1676    0.0000 C   0  0  0  0  0  0  0  0  0  0  0  0
   17.7857   -8.6229    0.0000 C   0  0  0  0  0  0  0  0  0  0  0  0
   19.6302   -9.6885    0.0000 C   0  0  0  0  0  0  0  0  0  0  0  0
   10.4602   -7.2314    0.0000 O   0  0  0  0  0  0  0  0  0  0  0  0
    7.7112  -15.6687    0.0000 C   0  0  0  0  0  0  0  0  0  0  0  0
    6.6469  -13.8252    0.0000 C   0  0  0  0  0  0  0  0  0  0  0  0
    9.4259  -16.9071    0.0000 O   0  0  0  0  0  0  0  0  0  0  0  0
    6.4243  -11.7081    0.0000 O   0  0  0  0  0  0  0  0  0  0  0  0
   13.0193   -5.1642    0.0000 O   0  0  0  0  0  0  0  0  0  0  0  0
   11.5200  -19.4839    0.0000 O   0  0  0  0  0  0  0  0  0  0  0  0
   14.4329  -19.8176    0.0000 O   0  0  0  0  0  0  0  0  0  0  0  0
   18.0397  -20.5865    0.0000 O   0  0  0  0  0  0  0  0  0  0  0  0
   19.6235  -11.8062    0.0000 O   0  0  0  0  0  0  0  0  0  0  0  0
   21.4737   -8.6241    0.0000 O   0  0  0  0  0  0  0  0  0  0  0  0
  1  2  1  0
  3  4  1  0
  5  6  1  0
  7  8  1  0
  8  9  1  0
  5  9  1  0
  6 10  1  0
  4 10  1  0
  9 11  1  0
 11 12  1  0
 10 13  1  0
 13 14  1  0
  3 15  1  0
  2 15  1  0
 16 17  1  0
 16 18  1  0
  7 18  1  0
 17 19  1  0
  1 19  1  0
  3 20  2  0
  7 21  2  0
 12 22  1  0
 12 23  2  0
 14 24  2  0
 14 25  1  0
M  END
>  <Name>  (235) 
K2-A2-15C5-2

>  <logK_Lu_z=3.0_T=25_I=1.0>  (235) 
7.71

$$$$

     RDKit          2D

 28 28  0  0  0  0  0  0  0  0999 V2000
   13.2252  -18.6816    0.0000 C   0  0  0  0  0  0  0  0  0  0  0  0
   11.5017  -18.6869    0.0000 C   0  0  0  0  0  0  0  0  0  0  0  0
    7.6818  -15.4811    0.0000 C   0  0  0  0  0  0  0  0  0  0  0  0
    8.5494  -16.9824    0.0000 C   0  0  0  0  0  0  0  0  0  0  0  0
    8.5468  -10.5632    0.0000 C   0  0  0  0  0  0  0  0  0  0  0  0
    7.6800  -12.0645    0.0000 C   0  0  0  0  0  0  0  0  0  0  0  0
   17.0521  -15.4737    0.0000 C   0  0  0  0  0  0  0  0  0  0  0  0
   16.1853  -16.9751    0.0000 C   0  0  0  0  0  0  0  0  0  0  0  0
   13.2344   -8.8676    0.0000 C   0  0  0  0  0  0  0  0  0  0  0  0
   11.5005   -8.8669    0.0000 C   0  0  0  0  0  0  0  0  0  0  0  0
   16.1867  -10.5721    0.0000 C   0  0  0  0  0  0  0  0  0  0  0  0
   17.0439  -12.0674    0.0000 C   0  0  0  0  0  0  0  0  0  0  0  0
   14.8557   -9.4568    0.0000 N   0  0  0  0  0  0  0  0  0  0  0  0
   17.3402  -13.7731    0.0000 N   0  0  0  0  0  0  0  0  0  0  0  0
    9.8654   -9.4575    0.0000 O   0  0  0  0  0  0  0  0  0  0  0  0
    7.3757  -13.7698    0.0000 O   0  0  0  0  0  0  0  0  0  0  0  0
    9.8701  -18.0922    0.0000 O   0  0  0  0  0  0  0  0  0  0  0  0
   14.8505  -18.0854    0.0000 O   0  0  0  0  0  0  0  0  0  0  0  0
   17.5058  -18.0843    0.0000 O   0  0  0  0  0  0  0  0  0  0  0  0
   11.1942   -7.1560    0.0000 O   0  0  0  0  0  0  0  0  0  0  0  0
   19.0744  -13.7734    0.0000 C   0  0  0  0  0  0  0  0  0  0  0  0
   19.9418  -15.2751    0.0000 C   0  0  0  0  0  0  0  0  0  0  0  0
   15.7225   -7.9555    0.0000 C   0  0  0  0  0  0  0  0  0  0  0  0
   17.4565   -7.9563    0.0000 C   0  0  0  0  0  0  0  0  0  0  0  0
   18.3140   -9.4517    0.0000 O   0  0  0  0  0  0  0  0  0  0  0  0
   18.3232   -6.4550    0.0000 O   0  0  0  0  0  0  0  0  0  0  0  0
   19.0812  -16.7655    0.0000 O   0  0  0  0  0  0  0  0  0  0  0  0
   21.6759  -15.2754    0.0000 O   0  0  0  0  0  0  0  0  0  0  0  0
  1  2  1  0
  3  4  1  0
  5  6  1  0
  7  8  1  0
  9 10  1  0
 11 12  1  0
 11 13  1  0
  9 13  1  0
 12 14  1  0
  7 14  1  0
 10 15  1  0
  5 15  1  0
  6 16  1  0
  3 16  1  0
  4 17  1  0
  2 17  1  0
  1 18  1  0
  8 18  1  0
  8 19  2  0
 10 20  2  0
 14 21  1  0
 21 22  1  0
 13 23  1  0
 23 24  1  0
 24 25  1  0
 24 26  2  0
 22 27  1  0
 22 28  2  0
M  END
>  <Name>  (236) 
K2-A2-18C6-3

>  <logK_Lu_z=3.0_T=25_I=1.0>  (236) 
8.57

$$$$

     RDKit          2D

 28 28  0  0  0  0  0  0  0  0999 V2000
   12.7316  -16.6173    0.0000 C   0  0  0  0  0  0  0  0  0  0  0  0
   11.0413  -17.5937    0.0000 C   0  0  0  0  0  0  0  0  0  0  0  0
   10.8176  -14.3409    0.0000 C   0  0  0  0  0  0  0  0  0  0  0  0
    9.1277  -13.3653    0.0000 C   0  0  0  0  0  0  0  0  0  0  0  0
    7.8791  -14.8517    0.0000 O   0  0  0  0  0  0  0  0  0  0  0  0
    7.8779  -11.8628    0.0000 O   0  0  0  0  0  0  0  0  0  0  0  0
   16.3451   -4.7670    0.0000 C   0  0  0  0  0  0  0  0  0  0  0  0
   14.6552   -3.7913    0.0000 C   0  0  0  0  0  0  0  0  0  0  0  0
   19.2804  -12.8443    0.0000 C   0  0  0  0  0  0  0  0  0  0  0  0
   19.2796  -14.7961    0.0000 C   0  0  0  0  0  0  0  0  0  0  0  0
   18.2537  -10.0436    0.0000 C   0  0  0  0  0  0  0  0  0  0  0  0
   18.2545   -8.0918    0.0000 C   0  0  0  0  0  0  0  0  0  0  0  0
   14.6520  -14.3317    0.0000 C   0  0  0  0  0  0  0  0  0  0  0  0
   16.3351  -13.3668    0.0000 C   0  0  0  0  0  0  0  0  0  0  0  0
   17.5905  -11.8686    0.0000 N   0  0  0  0  0  0  0  0  0  0  0  0
   17.5963  -15.7614    0.0000 O   0  0  0  0  0  0  0  0  0  0  0  0
   20.9695  -15.7718    0.0000 O   0  0  0  0  0  0  0  0  0  0  0  0
   20.1804   -7.7471    0.0000 O   0  0  0  0  0  0  0  0  0  0  0  0
   17.5897   -6.2514    0.0000 O   0  0  0  0  0  0  0  0  0  0  0  0
   12.7357   -3.4489    0.0000 O   0  0  0  0  0  0  0  0  0  0  0  0
   12.7320  -14.6653    0.0000 N   0  0  0  0  0  0  0  0  0  0  0  0
    9.3635  -16.6250    0.0000 O   0  0  0  0  0  0  0  0  0  0  0  0
   11.0409  -19.5457    0.0000 O   0  0  0  0  0  0  0  0  0  0  0  0
    7.2068  -10.0332    0.0000 C   0  0  0  0  0  0  0  0  0  0  0  0
   10.8094   -3.7934    0.0000 C   0  0  0  0  0  0  0  0  0  0  0  0
    7.2008   -8.0932    0.0000 O   0  0  0  0  0  0  0  0  0  0  0  0
    9.1195   -4.7700    0.0000 O   0  0  0  0  0  0  0  0  0  0  0  0
    7.8702   -6.2566    0.0000 C   0  0  0  0  0  0  0  0  0  0  0  0
  1  2  1  0
  3  4  1  0
  4  5  2  0
  4  6  1  0
  7  8  1  0
  9 10  1  0
 11 12  1  0
 13 14  1  0
 14 15  1  0
 11 15  1  0
  9 15  1  0
 10 16  1  0
 10 17  2  0
 12 18  2  0
 12 19  1  0
  7 19  1  0
  8 20  1  0
 13 21  1  0
  3 21  1  0
  1 21  1  0
  2 22  1  0
  2 23  2  0
  6 24  1  0
 20 25  1  0
 24 26  1  0
 25 27  1  0
 26 28  1  0
 27 28  1  0
M  END
>  <Name>  (237) 
K2-A2-21C7-1

>  <logK_Lu_z=3.0_T=25_I=1.0>  (237) 
8.93

$$$$

     RDKit          2D

 23 23  0  0  0  0  0  0  0  0999 V2000
   10.6038  -12.9664    0.0000 N   0  0  0  0  0  0  0  0  0  0  0  0
   10.7526  -11.3546    0.0000 C   0  0  0  0  0  0  0  0  0  0  0  0
   12.3001  -10.9563    0.0000 C   0  0  0  0  0  0  0  0  0  0  0  0
   12.4925   -9.3356    0.0000 O   0  0  0  0  0  0  0  0  0  0  0  0
   14.1455   -8.9656    0.0000 C   0  0  0  0  0  0  0  0  0  0  0  0
   14.9714  -10.3960    0.0000 C   0  0  0  0  0  0  0  0  0  0  0  0
   16.5914  -10.0532    0.0000 O   0  0  0  0  0  0  0  0  0  0  0  0
   17.4172  -11.4836    0.0000 C   0  0  0  0  0  0  0  0  0  0  0  0
   16.3471  -12.7507    0.0000 C   0  0  0  0  0  0  0  0  0  0  0  0
   17.1249  -14.1683    0.0000 N   0  0  0  0  0  0  0  0  0  0  0  0
   16.0372  -15.4050    0.0000 C   0  0  0  0  0  0  0  0  0  0  0  0
   14.5183  -14.7562    0.0000 C   0  0  0  0  0  0  0  0  0  0  0  0
   13.3884  -15.9198    0.0000 O   0  0  0  0  0  0  0  0  0  0  0  0
   11.9469  -15.2506    0.0000 C   0  0  0  0  0  0  0  0  0  0  0  0
   12.0740  -13.6433    0.0000 C   0  0  0  0  0  0  0  0  0  0  0  0
    8.9844  -13.1886    0.0000 C   0  0  0  0  0  0  0  0  0  0  0  0
    7.9822  -11.8974    0.0000 C   0  0  0  0  0  0  0  0  0  0  0  0
   18.5607  -14.9495    0.0000 C   0  0  0  0  0  0  0  0  0  0  0  0
   19.9551  -14.0968    0.0000 C   0  0  0  0  0  0  0  0  0  0  0  0
   19.9138  -12.4628    0.0000 O   0  0  0  0  0  0  0  0  0  0  0  0
   21.3909  -14.8780    0.0000 O   0  0  0  0  0  0  0  0  0  0  0  0
    8.5994  -10.3838    0.0000 O   0  0  0  0  0  0  0  0  0  0  0  0
    6.3629  -12.1196    0.0000 O   0  0  0  0  0  0  0  0  0  0  0  0
  1  2  1  0
  2  3  1  0
  3  4  1  0
  4  5  1  0
  5  6  1  0
  6  7  1  0
  7  8  1  0
  8  9  1  0
  9 10  1  0
 10 11  1  0
 11 12  1  0
 12 13  1  0
 13 14  1  0
 14 15  1  0
 15  1  1  0
  1 16  1  0
 16 17  1  0
 10 18  1  0
 18 19  1  0
 19 20  1  0
 19 21  2  0
 17 22  1  0
 17 23  2  0
M  END
>  <Name>  (238) 
K21DA

>  <logK_Lu_z=3.0_T=25_I=1.0>  (238) 
10.33

$$$$

     RDKit          2D

 26 26  0  0  0  0  0  0  0  0999 V2000
   10.6977   -9.1423    0.0000 N   0  0  0  0  0  0  0  0  0  0  0  0
   11.9830   -8.4123    0.0000 C   0  0  0  0  0  0  0  0  0  0  0  0
   11.9726   -6.9342    0.0000 C   0  0  0  0  0  0  0  0  0  0  0  0
   13.2579   -6.2042    0.0000 O   0  0  0  0  0  0  0  0  0  0  0  0
   14.5272   -6.9370    0.0000 C   0  0  0  0  0  0  0  0  0  0  0  0
   15.7927   -6.1956    0.0000 C   0  0  0  0  0  0  0  0  0  0  0  0
   17.0686   -6.9322    0.0000 O   0  0  0  0  0  0  0  0  0  0  0  0
   17.0592   -8.3989    0.0000 C   0  0  0  0  0  0  0  0  0  0  0  0
   18.3484   -9.1432    0.0000 C   0  0  0  0  0  0  0  0  0  0  0  0
   18.3390  -10.6098    0.0000 N   0  0  0  0  0  0  0  0  0  0  0  0
   17.0735  -11.3513    0.0000 C   0  0  0  0  0  0  0  0  0  0  0  0
   17.0641  -12.8179    0.0000 C   0  0  0  0  0  0  0  0  0  0  0  0
   15.8063  -13.5461    0.0000 O   0  0  0  0  0  0  0  0  0  0  0  0
   14.5172  -12.8018    0.0000 C   0  0  0  0  0  0  0  0  0  0  0  0
   13.2517  -13.5433    0.0000 C   0  0  0  0  0  0  0  0  0  0  0  0
   11.9758  -12.8066    0.0000 O   0  0  0  0  0  0  0  0  0  0  0  0
   11.9851  -11.3400    0.0000 C   0  0  0  0  0  0  0  0  0  0  0  0
   10.7158  -10.6071    0.0000 C   0  0  0  0  0  0  0  0  0  0  0  0
    9.2531   -8.8662    0.0000 C   0  0  0  0  0  0  0  0  0  0  0  0
    8.2916   -9.9792    0.0000 C   0  0  0  0  0  0  0  0  0  0  0  0
   19.7831  -10.8886    0.0000 C   0  0  0  0  0  0  0  0  0  0  0  0
   20.2638  -12.2786    0.0000 C   0  0  0  0  0  0  0  0  0  0  0  0
    6.8469   -9.7032    0.0000 O   0  0  0  0  0  0  0  0  0  0  0  0
    8.7749  -11.3684    0.0000 O   0  0  0  0  0  0  0  0  0  0  0  0
   21.7080  -12.5573    0.0000 O   0  0  0  0  0  0  0  0  0  0  0  0
   19.3004  -13.3899    0.0000 O   0  0  0  0  0  0  0  0  0  0  0  0
  1  2  1  0
  2  3  1  0
  3  4  1  0
  4  5  1  0
  5  6  1  0
  6  7  1  0
  7  8  1  0
  8  9  1  0
  9 10  1  0
 10 11  1  0
 11 12  1  0
 12 13  1  0
 13 14  1  0
 14 15  1  0
 15 16  1  0
 16 17  1  0
 17 18  1  0
 18  1  1  0
  1 19  1  0
 19 20  1  0
 10 21  1  0
 21 22  1  0
 20 23  2  0
 20 24  1  0
 22 25  2  0
 22 26  1  0
M  END
>  <Name>  (239) 
K22DA

>  <logK_Lu_z=3.0_T=25_I=1.0>  (239) 
10.84

$$$$

     RDKit          2D

 28 28  0  0  0  0  0  0  0  0999 V2000
   12.3642  -10.1678    0.0000 N   0  0  0  0  0  0  0  0  0  0  0  0
   13.6495   -9.4378    0.0000 C   0  0  0  0  0  0  0  0  0  0  0  0
   13.6391   -7.9597    0.0000 C   0  0  0  0  0  0  0  0  0  0  0  0
   14.9244   -7.2297    0.0000 O   0  0  0  0  0  0  0  0  0  0  0  0
   16.1937   -7.9626    0.0000 C   0  0  0  0  0  0  0  0  0  0  0  0
   17.4591   -7.2211    0.0000 C   0  0  0  0  0  0  0  0  0  0  0  0
   18.7351   -7.9578    0.0000 O   0  0  0  0  0  0  0  0  0  0  0  0
   18.7257   -9.4244    0.0000 C   0  0  0  0  0  0  0  0  0  0  0  0
   20.0148  -10.1687    0.0000 C   0  0  0  0  0  0  0  0  0  0  0  0
   20.0055  -11.6354    0.0000 N   0  0  0  0  0  0  0  0  0  0  0  0
   18.7400  -12.3768    0.0000 C   0  0  0  0  0  0  0  0  0  0  0  0
   18.7307  -13.8434    0.0000 C   0  0  0  0  0  0  0  0  0  0  0  0
   17.4728  -14.5716    0.0000 O   0  0  0  0  0  0  0  0  0  0  0  0
   16.1837  -13.8274    0.0000 C   0  0  0  0  0  0  0  0  0  0  0  0
   14.9182  -14.5688    0.0000 C   0  0  0  0  0  0  0  0  0  0  0  0
   13.6423  -13.8322    0.0000 O   0  0  0  0  0  0  0  0  0  0  0  0
   13.6516  -12.3655    0.0000 C   0  0  0  0  0  0  0  0  0  0  0  0
   12.3823  -11.6327    0.0000 C   0  0  0  0  0  0  0  0  0  0  0  0
   10.9196   -9.8917    0.0000 C   0  0  0  0  0  0  0  0  0  0  0  0
    9.9581  -11.0048    0.0000 C   0  0  0  0  0  0  0  0  0  0  0  0
   21.4496  -11.9141    0.0000 C   0  0  0  0  0  0  0  0  0  0  0  0
   21.9304  -13.3041    0.0000 C   0  0  0  0  0  0  0  0  0  0  0  0
    8.5135  -10.7287    0.0000 O   0  0  0  0  0  0  0  0  0  0  0  0
   10.4414  -12.3939    0.0000 O   0  0  0  0  0  0  0  0  0  0  0  0
   23.3745  -13.5829    0.0000 O   0  0  0  0  0  0  0  0  0  0  0  0
   20.9669  -14.4154    0.0000 O   0  0  0  0  0  0  0  0  0  0  0  0
   10.4363   -8.5025    0.0000 C   0  0  0  0  0  0  0  0  0  0  0  0
   22.4131  -10.8028    0.0000 C   0  0  0  0  0  0  0  0  0  0  0  0
  1  2  1  0
  2  3  1  0
  3  4  1  0
  4  5  1  0
  5  6  1  0
  6  7  1  0
  7  8  1  0
  8  9  1  0
  9 10  1  0
 10 11  1  0
 11 12  1  0
 12 13  1  0
 13 14  1  0
 14 15  1  0
 15 16  1  0
 16 17  1  0
 17 18  1  0
 18  1  1  0
  1 19  1  0
 19 20  1  0
 10 21  1  0
 21 22  1  0
 20 23  2  0
 20 24  1  0
 22 25  2  0
 22 26  1  0
 19 27  1  0
 21 28  1  0
M  END
>  <Name>  (240) 
K22DAP

>  <logK_Lu_z=3.0_T=25_I=1.0>  (240) 
10.88

$$$$

     RDKit          2D

 22 22  0  0  0  0  0  0  0  0999 V2000
   12.4123   -9.3666    0.0000 N   0  0  0  0  0  0  0  0  0  0  0  0
   13.6976   -8.6366    0.0000 C   0  0  0  0  0  0  0  0  0  0  0  0
   13.6871   -7.1585    0.0000 C   0  0  0  0  0  0  0  0  0  0  0  0
   14.9724   -6.4285    0.0000 O   0  0  0  0  0  0  0  0  0  0  0  0
   16.2417   -7.1613    0.0000 C   0  0  0  0  0  0  0  0  0  0  0  0
   17.5072   -6.4199    0.0000 C   0  0  0  0  0  0  0  0  0  0  0  0
   18.7832   -7.1566    0.0000 O   0  0  0  0  0  0  0  0  0  0  0  0
   18.7738   -8.6232    0.0000 C   0  0  0  0  0  0  0  0  0  0  0  0
   20.0629   -9.3675    0.0000 C   0  0  0  0  0  0  0  0  0  0  0  0
   20.0536  -10.8341    0.0000 N   0  0  0  0  0  0  0  0  0  0  0  0
   18.7881  -11.5756    0.0000 C   0  0  0  0  0  0  0  0  0  0  0  0
   18.7787  -13.0423    0.0000 C   0  0  0  0  0  0  0  0  0  0  0  0
   17.5209  -13.7705    0.0000 O   0  0  0  0  0  0  0  0  0  0  0  0
   16.2317  -13.0262    0.0000 C   0  0  0  0  0  0  0  0  0  0  0  0
   14.9662  -13.7676    0.0000 C   0  0  0  0  0  0  0  0  0  0  0  0
   13.6903  -13.0310    0.0000 O   0  0  0  0  0  0  0  0  0  0  0  0
   13.6997  -11.5643    0.0000 C   0  0  0  0  0  0  0  0  0  0  0  0
   12.4304  -10.8314    0.0000 C   0  0  0  0  0  0  0  0  0  0  0  0
   21.4978  -11.1129    0.0000 C   0  0  0  0  0  0  0  0  0  0  0  0
   21.9785  -12.5029    0.0000 C   0  0  0  0  0  0  0  0  0  0  0  0
   23.4226  -12.7817    0.0000 O   0  0  0  0  0  0  0  0  0  0  0  0
   21.0150  -13.6143    0.0000 O   0  0  0  0  0  0  0  0  0  0  0  0
  1  2  1  0
  2  3  1  0
  3  4  1  0
  4  5  1  0
  5  6  1  0
  6  7  1  0
  7  8  1  0
  8  9  1  0
  9 10  1  0
 10 11  1  0
 11 12  1  0
 12 13  1  0
 13 14  1  0
 14 15  1  0
 15 16  1  0
 16 17  1  0
 17 18  1  0
 18  1  1  0
 10 19  1  0
 19 20  1  0
 20 21  2  0
 20 22  1  0
M  END
>  <Name>  (241) 
K22MA

>  <logK_Lu_z=3.0_T=25_I=1.0>  (241) 
6.01

$$$$

     RDKit          2D

  6  5  0  0  1  0  0  0  0  0999 V2000
    8.8033   -5.1220    0.0000 C   0  0  0  0  0  0  0  0  0  0  0  0
   10.6886   -8.3876    0.0000 C   0  0  0  0  0  0  0  0  0  0  0  0
   14.4051   -8.3896    0.0000 C   0  0  0  0  0  0  0  0  0  0  0  0
    8.7886  -11.6323    0.0000 O   0  0  0  0  0  0  0  0  0  0  0  0
   16.2905  -11.6552    0.0000 O   0  0  0  0  0  0  0  0  0  0  0  0
   16.3052   -5.1449    0.0000 O   0  0  0  0  0  0  0  0  0  0  0  0
  2  1  1  1
  2  3  1  0
  2  4  1  0
  3  5  1  0
  3  6  2  0
M  END
>  <Name>  (242) 
L-Lactic

>  <logK_Lu_z=3.0_T=25_I=1.0>  (242) 
3.4

$$$$

     RDKit          2D

 29 31  0  0  0  0  0  0  0  0999 V2000
   13.9980  -12.5425    0.0000 N   0  0  0  0  0  0  0  0  0  0  0  0
   15.4172  -12.5947    0.0000 C   0  0  0  0  0  0  0  0  0  0  0  0
   16.3155  -11.5648    0.0000 C   0  0  0  0  0  0  0  0  0  0  0  0
   17.7105  -11.4707    0.0000 N   0  0  0  0  0  0  0  0  0  0  0  0
   18.4024  -12.7231    0.0000 C   0  0  0  0  0  0  0  0  0  0  0  0
   17.7821  -13.9985    0.0000 C   0  0  0  0  0  0  0  0  0  0  0  0
   18.3730  -10.1947    0.0000 C   0  0  0  0  0  0  0  0  0  0  0  0
   13.2833  -11.2993    0.0000 C   0  0  0  0  0  0  0  0  0  0  0  0
   13.3134  -13.8112    0.0000 C   0  0  0  0  0  0  0  0  0  0  0  0
   19.8025  -10.1111    0.0000 C   0  0  0  0  0  0  0  0  0  0  0  0
   20.5363  -11.3492    0.0000 C   0  0  0  0  0  0  0  0  0  0  0  0
   20.5177   -8.8723    0.0000 N   0  0  0  0  0  0  0  0  0  0  0  0
   21.9672  -11.3474    0.0000 C   0  0  0  0  0  0  0  0  0  0  0  0
   21.9526   -8.8634    0.0000 C   0  0  0  0  0  0  0  0  0  0  0  0
   22.6801  -10.0998    0.0000 C   0  0  0  0  0  0  0  0  0  0  0  0
   13.9540  -10.0334    0.0000 C   0  0  0  0  0  0  0  0  0  0  0  0
   13.2693   -8.7663    0.0000 N   0  0  0  0  0  0  0  0  0  0  0  0
   15.3560   -9.9414    0.0000 C   0  0  0  0  0  0  0  0  0  0  0  0
   14.0035   -7.5391    0.0000 C   0  0  0  0  0  0  0  0  0  0  0  0
   16.1372   -8.7601    0.0000 C   0  0  0  0  0  0  0  0  0  0  0  0
   15.4328   -7.4932    0.0000 C   0  0  0  0  0  0  0  0  0  0  0  0
   11.8816  -13.8496    0.0000 C   0  0  0  0  0  0  0  0  0  0  0  0
   11.1697  -15.0944    0.0000 C   0  0  0  0  0  0  0  0  0  0  0  0
   11.1590  -12.6085    0.0000 N   0  0  0  0  0  0  0  0  0  0  0  0
    9.7335  -15.0938    0.0000 C   0  0  0  0  0  0  0  0  0  0  0  0
    9.7254  -12.6068    0.0000 C   0  0  0  0  0  0  0  0  0  0  0  0
    9.0128  -13.8539    0.0000 C   0  0  0  0  0  0  0  0  0  0  0  0
   18.7089  -15.1409    0.0000 O   0  0  0  0  0  0  0  0  0  0  0  0
   16.4432  -14.4617    0.0000 O   0  0  0  0  0  0  0  0  0  0  0  0
  1  2  1  0
  2  3  1  0
  3  4  1  0
  4  5  1  0
  5  6  1  0
  4  7  1  0
  1  8  1  0
  1  9  1  0
 11 10  2  0
 12 10  1  0
 13 11  1  0
 14 12  2  0
 15 13  2  0
 15 14  1  0
  7 10  1  0
 17 16  2  0
 18 16  1  0
 19 17  1  0
 20 18  2  0
 21 19  2  0
 21 20  1  0
  8 16  1  0
 23 22  2  0
 24 22  1  0
 25 23  1  0
 26 24  2  0
 27 25  2  0
 27 26  1  0
  9 22  1  0
  6 28  2  0
  6 29  1  0
M  END
>  <Name>  (243) 
L3py

>  <logK_Lu_z=3.0_T=25_I=1.0>  (243) 
9.3

$$$$

     RDKit          2D

 34 35  0  0  0  0  0  0  0  0999 V2000
   12.2823   -8.2808    0.0000 C   0  0  0  0  0  0  0  0  0  0  0  0
   11.6173   -9.4326    0.0000 N   0  0  0  0  0  0  0  0  0  0  0  0
   11.6173   -7.1290    0.0000 C   0  0  0  0  0  0  0  0  0  0  0  0
   10.2873   -9.4326    0.0000 C   0  0  0  0  0  0  0  0  0  0  0  0
   10.2873   -7.1290    0.0000 C   0  0  0  0  0  0  0  0  0  0  0  0
    9.6223   -8.2808    0.0000 C   0  0  0  0  0  0  0  0  0  0  0  0
   13.6123   -8.2808    0.0000 C   0  0  0  0  0  0  0  0  0  0  0  0
   14.2773   -7.1290    0.0000 C   0  0  0  0  0  0  0  0  0  0  0  0
   14.2773   -9.4326    0.0000 N   0  0  0  0  0  0  0  0  0  0  0  0
   15.6073   -7.1290    0.0000 C   0  0  0  0  0  0  0  0  0  0  0  0
   15.6073   -9.4326    0.0000 C   0  0  0  0  0  0  0  0  0  0  0  0
   16.2723   -8.2808    0.0000 C   0  0  0  0  0  0  0  0  0  0  0  0
   16.2723  -10.5844    0.0000 C   0  0  0  0  0  0  0  0  0  0  0  0
    9.6223  -10.5844    0.0000 C   0  0  0  0  0  0  0  0  0  0  0  0
    8.2923  -10.5844    0.0000 N   0  0  0  0  0  0  0  0  0  0  0  0
    7.6273  -11.7362    0.0000 C   0  0  0  0  0  0  0  0  0  0  0  0
    6.2973  -11.7362    0.0000 C   0  0  0  0  0  0  0  0  0  0  0  0
    5.6323  -12.8881    0.0000 C   0  0  0  0  0  0  0  0  0  0  0  0
   15.6073  -11.7362    0.0000 O   0  0  0  0  0  0  0  0  0  0  0  0
   17.6023  -10.5844    0.0000 N   0  0  0  0  0  0  0  0  0  0  0  0
   10.2873  -11.7362    0.0000 O   0  0  0  0  0  0  0  0  0  0  0  0
    4.3023  -12.8880    0.0000 C   0  0  0  0  0  0  0  0  0  0  0  0
    7.6273   -9.4326    0.0000 C   0  0  0  0  0  0  0  0  0  0  0  0
    8.2923   -8.2808    0.0000 C   0  0  0  0  0  0  0  0  0  0  0  0
    7.6273   -7.1290    0.0000 C   0  0  0  0  0  0  0  0  0  0  0  0
    8.2923   -5.9772    0.0000 C   0  0  0  0  0  0  0  0  0  0  0  0
   18.2673   -9.4326    0.0000 C   0  0  0  0  0  0  0  0  0  0  0  0
   18.2673  -11.7362    0.0000 C   0  0  0  0  0  0  0  0  0  0  0  0
   19.5973   -9.4326    0.0000 C   0  0  0  0  0  0  0  0  0  0  0  0
   20.2623   -8.2808    0.0000 C   0  0  0  0  0  0  0  0  0  0  0  0
   21.5923   -8.2808    0.0000 C   0  0  0  0  0  0  0  0  0  0  0  0
   17.6023  -12.8881    0.0000 C   0  0  0  0  0  0  0  0  0  0  0  0
   18.2673  -14.0399    0.0000 C   0  0  0  0  0  0  0  0  0  0  0  0
   17.6023  -15.1917    0.0000 C   0  0  0  0  0  0  0  0  0  0  0  0
  2  1  2  0
  3  1  1  0
  4  2  1  0
  5  3  2  0
  6  4  2  0
  6  5  1  0
  8  7  2  0
  9  7  1  0
 10  8  1  0
 11  9  2  0
 12 10  2  0
 12 11  1  0
  1  7  1  0
 11 13  1  0
  4 14  1  0
 14 15  1  0
 15 16  1  0
 16 17  1  0
 17 18  1  0
 13 19  2  0
 13 20  1  0
 14 21  2  0
 18 22  1  0
 15 23  1  0
 23 24  1  0
 24 25  1  0
 25 26  1  0
 20 27  1  0
 20 28  1  0
 27 29  1  0
 29 30  1  0
 30 31  1  0
 28 32  1  0
 32 33  1  0
 33 34  1  0
M  END
>  <Name>  (244) 
LBu2

>  <logK_Lu_z=3.0_T=25_I=1.0>  (244) 
5.7

$$$$

     RDKit          2D

 50 51  0  0  0  0  0  0  0  0999 V2000
   14.6378  -10.6684    0.0000 C   0  0  0  0  0  0  0  0  0  0  0  0
   13.9728  -11.8202    0.0000 N   0  0  0  0  0  0  0  0  0  0  0  0
   13.9728   -9.5166    0.0000 C   0  0  0  0  0  0  0  0  0  0  0  0
   12.6428  -11.8202    0.0000 C   0  0  0  0  0  0  0  0  0  0  0  0
   12.6428   -9.5166    0.0000 C   0  0  0  0  0  0  0  0  0  0  0  0
   11.9778  -10.6684    0.0000 C   0  0  0  0  0  0  0  0  0  0  0  0
   15.9678  -10.6684    0.0000 C   0  0  0  0  0  0  0  0  0  0  0  0
   16.6329   -9.5166    0.0000 C   0  0  0  0  0  0  0  0  0  0  0  0
   16.6329  -11.8202    0.0000 N   0  0  0  0  0  0  0  0  0  0  0  0
   17.9629   -9.5166    0.0000 C   0  0  0  0  0  0  0  0  0  0  0  0
   17.9629  -11.8202    0.0000 C   0  0  0  0  0  0  0  0  0  0  0  0
   18.6278  -10.6684    0.0000 C   0  0  0  0  0  0  0  0  0  0  0  0
   18.6279  -12.9720    0.0000 C   0  0  0  0  0  0  0  0  0  0  0  0
   11.9778  -12.9720    0.0000 C   0  0  0  0  0  0  0  0  0  0  0  0
   10.6479  -12.9720    0.0000 N   0  0  0  0  0  0  0  0  0  0  0  0
    9.9829  -14.1238    0.0000 C   0  0  0  0  0  0  0  0  0  0  0  0
    8.6529  -14.1238    0.0000 C   0  0  0  0  0  0  0  0  0  0  0  0
    7.9878  -15.2756    0.0000 C   0  0  0  0  0  0  0  0  0  0  0  0
   17.9629  -14.1238    0.0000 O   0  0  0  0  0  0  0  0  0  0  0  0
   19.9579  -12.9720    0.0000 N   0  0  0  0  0  0  0  0  0  0  0  0
   12.6428  -14.1238    0.0000 O   0  0  0  0  0  0  0  0  0  0  0  0
    6.6578  -15.2756    0.0000 C   0  0  0  0  0  0  0  0  0  0  0  0
    9.9829  -11.8202    0.0000 C   0  0  0  0  0  0  0  0  0  0  0  0
   10.6479  -10.6684    0.0000 C   0  0  0  0  0  0  0  0  0  0  0  0
    9.9829   -9.5166    0.0000 C   0  0  0  0  0  0  0  0  0  0  0  0
   10.6478   -8.3648    0.0000 C   0  0  0  0  0  0  0  0  0  0  0  0
   20.6229  -11.8202    0.0000 C   0  0  0  0  0  0  0  0  0  0  0  0
   20.6229  -14.1238    0.0000 C   0  0  0  0  0  0  0  0  0  0  0  0
   21.9529  -11.8202    0.0000 C   0  0  0  0  0  0  0  0  0  0  0  0
   22.6179  -10.6684    0.0000 C   0  0  0  0  0  0  0  0  0  0  0  0
   23.9479  -10.6684    0.0000 C   0  0  0  0  0  0  0  0  0  0  0  0
   19.9579  -15.2756    0.0000 C   0  0  0  0  0  0  0  0  0  0  0  0
   20.6229  -16.4275    0.0000 C   0  0  0  0  0  0  0  0  0  0  0  0
   19.9579  -17.5793    0.0000 C   0  0  0  0  0  0  0  0  0  0  0  0
    9.9829   -7.2129    0.0000 C   0  0  0  0  0  0  0  0  0  0  0  0
   10.6479   -6.0611    0.0000 C   0  0  0  0  0  0  0  0  0  0  0  0
    9.9829   -4.9093    0.0000 C   0  0  0  0  0  0  0  0  0  0  0  0
   10.6479   -3.7575    0.0000 C   0  0  0  0  0  0  0  0  0  0  0  0
    5.9928  -16.4275    0.0000 C   0  0  0  0  0  0  0  0  0  0  0  0
    4.6628  -16.4274    0.0000 C   0  0  0  0  0  0  0  0  0  0  0  0
    3.9978  -17.5793    0.0000 C   0  0  0  0  0  0  0  0  0  0  0  0
    2.6678  -17.5792    0.0000 C   0  0  0  0  0  0  0  0  0  0  0  0
   24.6129   -9.5166    0.0000 C   0  0  0  0  0  0  0  0  0  0  0  0
   25.9429   -9.5166    0.0000 C   0  0  0  0  0  0  0  0  0  0  0  0
   26.6079   -8.3648    0.0000 C   0  0  0  0  0  0  0  0  0  0  0  0
   27.9379   -8.3648    0.0000 C   0  0  0  0  0  0  0  0  0  0  0  0
   20.6228  -18.7311    0.0000 C   0  0  0  0  0  0  0  0  0  0  0  0
   19.9578  -19.8829    0.0000 C   0  0  0  0  0  0  0  0  0  0  0  0
   20.6228  -21.0347    0.0000 C   0  0  0  0  0  0  0  0  0  0  0  0
   19.9578  -22.1865    0.0000 C   0  0  0  0  0  0  0  0  0  0  0  0
  2  1  2  0
  3  1  1  0
  4  2  1  0
  5  3  2  0
  6  4  2  0
  6  5  1  0
  8  7  2  0
  9  7  1  0
 10  8  1  0
 11  9  2  0
 12 10  2  0
 12 11  1  0
  1  7  1  0
 11 13  1  0
  4 14  1  0
 14 15  1  0
 15 16  1  0
 16 17  1  0
 17 18  1  0
 13 19  2  0
 13 20  1  0
 14 21  2  0
 18 22  1  0
 15 23  1  0
 23 24  1  0
 24 25  1  0
 25 26  1  0
 20 27  1  0
 20 28  1  0
 27 29  1  0
 29 30  1  0
 30 31  1  0
 28 32  1  0
 32 33  1  0
 33 34  1  0
 26 35  1  0
 35 36  1  0
 36 37  1  0
 37 38  1  0
 22 39  1  0
 39 40  1  0
 40 41  1  0
 41 42  1  0
 31 43  1  0
 43 44  1  0
 44 45  1  0
 45 46  1  0
 34 47  1  0
 47 48  1  0
 48 49  1  0
 49 50  1  0
M  END
>  <Name>  (245) 
LOct2

>  <logK_Lu_z=3.0_T=25_I=1.0>  (245) 
6.4

$$$$

     RDKit          2D

 34 37  0  0  0  0  0  0  0  0999 V2000
   13.8366  -10.5082    0.0000 C   0  0  0  0  0  0  0  0  0  0  0  0
   13.1716  -11.6600    0.0000 N   0  0  0  0  0  0  0  0  0  0  0  0
   13.1716   -9.3564    0.0000 C   0  0  0  0  0  0  0  0  0  0  0  0
   11.8416  -11.6600    0.0000 C   0  0  0  0  0  0  0  0  0  0  0  0
   11.8416   -9.3564    0.0000 C   0  0  0  0  0  0  0  0  0  0  0  0
   11.1766  -10.5082    0.0000 C   0  0  0  0  0  0  0  0  0  0  0  0
   15.1666  -10.5082    0.0000 C   0  0  0  0  0  0  0  0  0  0  0  0
   15.8316   -9.3564    0.0000 C   0  0  0  0  0  0  0  0  0  0  0  0
   15.8316  -11.6600    0.0000 N   0  0  0  0  0  0  0  0  0  0  0  0
   17.1616   -9.3564    0.0000 C   0  0  0  0  0  0  0  0  0  0  0  0
   17.1616  -11.6600    0.0000 C   0  0  0  0  0  0  0  0  0  0  0  0
   17.8266  -10.5082    0.0000 C   0  0  0  0  0  0  0  0  0  0  0  0
   17.8266  -12.8118    0.0000 C   0  0  0  0  0  0  0  0  0  0  0  0
   11.1766  -12.8118    0.0000 C   0  0  0  0  0  0  0  0  0  0  0  0
    9.8466  -12.8118    0.0000 N   0  0  0  0  0  0  0  0  0  0  0  0
   17.1616  -13.9636    0.0000 O   0  0  0  0  0  0  0  0  0  0  0  0
   19.1566  -12.8118    0.0000 N   0  0  0  0  0  0  0  0  0  0  0  0
   11.8416  -13.9636    0.0000 O   0  0  0  0  0  0  0  0  0  0  0  0
    9.1816  -11.6600    0.0000 C   0  0  0  0  0  0  0  0  0  0  0  0
   19.8216  -11.6600    0.0000 C   0  0  0  0  0  0  0  0  0  0  0  0
    9.8466  -10.5082    0.0000 C   0  0  0  0  0  0  0  0  0  0  0  0
   21.1516  -11.6600    0.0000 C   0  0  0  0  0  0  0  0  0  0  0  0
   19.8216  -13.9636    0.0000 C   0  0  0  0  0  0  0  0  0  0  0  0
   21.1516  -13.9636    0.0000 C   0  0  0  0  0  0  0  0  0  0  0  0
   19.1566  -15.1154    0.0000 C   0  0  0  0  0  0  0  0  0  0  0  0
   21.8166  -15.1154    0.0000 C   0  0  0  0  0  0  0  0  0  0  0  0
   19.8216  -16.2673    0.0000 C   0  0  0  0  0  0  0  0  0  0  0  0
   21.1516  -16.2673    0.0000 C   0  0  0  0  0  0  0  0  0  0  0  0
    9.1816  -13.9636    0.0000 C   0  0  0  0  0  0  0  0  0  0  0  0
    9.8466  -15.1154    0.0000 C   0  0  0  0  0  0  0  0  0  0  0  0
    7.8516  -13.9636    0.0000 C   0  0  0  0  0  0  0  0  0  0  0  0
    9.1816  -16.2673    0.0000 C   0  0  0  0  0  0  0  0  0  0  0  0
    7.1866  -15.1154    0.0000 C   0  0  0  0  0  0  0  0  0  0  0  0
    7.8516  -16.2673    0.0000 C   0  0  0  0  0  0  0  0  0  0  0  0
  2  1  2  0
  3  1  1  0
  4  2  1  0
  5  3  2  0
  6  4  2  0
  6  5  1  0
  8  7  2  0
  9  7  1  0
 10  8  1  0
 11  9  2  0
 12 10  2  0
 12 11  1  0
  1  7  1  0
 11 13  1  0
  4 14  1  0
 14 15  1  0
 13 16  2  0
 13 17  1  0
 14 18  2  0
 15 19  1  0
 17 20  1  0
 19 21  1  0
 20 22  1  0
 24 23  2  0
 25 23  1  0
 26 24  1  0
 27 25  2  0
 28 26  2  0
 28 27  1  0
 17 23  1  0
 30 29  2  0
 31 29  1  0
 32 30  1  0
 33 31  2  0
 34 32  2  0
 34 33  1  0
 15 29  1  0
M  END
>  <Name>  (246) 
LPh

>  <logK_Lu_z=3.0_T=25_I=1.0>  (246) 
5.5

$$$$

     RDKit          2D

 26 27  0  0  0  0  0  0  0  0999 V2000
   10.8563  -11.5329    0.0000 N   0  0  0  0  0  0  0  0  0  0  0  0
   12.2898  -11.5329    0.0000 C   0  0  0  0  0  0  0  0  0  0  0  0
   13.0066  -10.2915    0.0000 C   0  0  0  0  0  0  0  0  0  0  0  0
   14.4401  -10.2915    0.0000 N   0  0  0  0  0  0  0  0  0  0  0  0
   15.1568  -11.5329    0.0000 C   0  0  0  0  0  0  0  0  0  0  0  0
   14.4401  -12.7744    0.0000 C   0  0  0  0  0  0  0  0  0  0  0  0
   15.1568   -9.0500    0.0000 C   0  0  0  0  0  0  0  0  0  0  0  0
   10.1395  -10.2915    0.0000 C   0  0  0  0  0  0  0  0  0  0  0  0
   10.1395  -12.7744    0.0000 C   0  0  0  0  0  0  0  0  0  0  0  0
   16.5904   -9.0500    0.0000 C   0  0  0  0  0  0  0  0  0  0  0  0
   10.8563   -9.0500    0.0000 C   0  0  0  0  0  0  0  0  0  0  0  0
   10.1395   -7.8086    0.0000 N   0  0  0  0  0  0  0  0  0  0  0  0
   12.2898   -9.0500    0.0000 C   0  0  0  0  0  0  0  0  0  0  0  0
   10.8563   -6.5671    0.0000 C   0  0  0  0  0  0  0  0  0  0  0  0
   13.0066   -7.8086    0.0000 C   0  0  0  0  0  0  0  0  0  0  0  0
   12.2898   -6.5671    0.0000 C   0  0  0  0  0  0  0  0  0  0  0  0
    8.7060  -12.7744    0.0000 C   0  0  0  0  0  0  0  0  0  0  0  0
    7.9893  -14.0159    0.0000 C   0  0  0  0  0  0  0  0  0  0  0  0
    7.9893  -11.5329    0.0000 N   0  0  0  0  0  0  0  0  0  0  0  0
    6.5557  -14.0159    0.0000 C   0  0  0  0  0  0  0  0  0  0  0  0
    6.5557  -11.5329    0.0000 C   0  0  0  0  0  0  0  0  0  0  0  0
    5.8390  -12.7744    0.0000 C   0  0  0  0  0  0  0  0  0  0  0  0
   15.1568  -14.0159    0.0000 O   0  0  0  0  0  0  0  0  0  0  0  0
   13.0066  -12.7744    0.0000 O   0  0  0  0  0  0  0  0  0  0  0  0
   17.3071   -7.8086    0.0000 O   0  0  0  0  0  0  0  0  0  0  0  0
   17.3071  -10.2915    0.0000 O   0  0  0  0  0  0  0  0  0  0  0  0
  1  2  1  0
  2  3  1  0
  3  4  1  0
  4  5  1  0
  5  6  1  0
  4  7  1  0
  1  8  1  0
  1  9  1  0
  7 10  1  0
 12 11  2  0
 13 11  1  0
 14 12  1  0
 15 13  2  0
 16 14  2  0
 16 15  1  0
  8 11  1  0
 18 17  2  0
 19 17  1  0
 20 18  1  0
 21 19  2  0
 22 20  2  0
 22 21  1  0
  9 17  1  0
  6 23  2  0
  6 24  1  0
 10 25  2  0
 10 26  1  0
M  END
>  <Name>  (247) 
Lpy

>  <logK_Lu_z=3.0_T=25_I=1.0>  (247) 
13.05

$$$$

     RDKit          2D

 26 27  0  0  0  0  0  0  0  0999 V2000
   14.8303  -11.5650    0.0000 N   0  0  0  0  0  0  0  0  0  0  0  0
   16.2638  -11.5650    0.0000 C   0  0  0  0  0  0  0  0  0  0  0  0
   16.9805  -10.3235    0.0000 C   0  0  0  0  0  0  0  0  0  0  0  0
   18.4141  -10.3235    0.0000 N   0  0  0  0  0  0  0  0  0  0  0  0
   19.1308  -11.5650    0.0000 C   0  0  0  0  0  0  0  0  0  0  0  0
   18.4141  -12.8065    0.0000 C   0  0  0  0  0  0  0  0  0  0  0  0
   19.1308   -9.0821    0.0000 C   0  0  0  0  0  0  0  0  0  0  0  0
   14.1135  -10.3235    0.0000 C   0  0  0  0  0  0  0  0  0  0  0  0
   14.1135  -12.8065    0.0000 C   0  0  0  0  0  0  0  0  0  0  0  0
   20.5643   -9.0821    0.0000 C   0  0  0  0  0  0  0  0  0  0  0  0
   14.8303   -9.0821    0.0000 C   0  0  0  0  0  0  0  0  0  0  0  0
   14.1135   -7.8406    0.0000 N   0  0  0  0  0  0  0  0  0  0  0  0
   16.2638   -9.0821    0.0000 C   0  0  0  0  0  0  0  0  0  0  0  0
   14.8303   -6.5992    0.0000 C   0  0  0  0  0  0  0  0  0  0  0  0
   16.9805   -7.8406    0.0000 N   0  0  0  0  0  0  0  0  0  0  0  0
   16.2638   -6.5992    0.0000 C   0  0  0  0  0  0  0  0  0  0  0  0
   12.6800  -12.8065    0.0000 C   0  0  0  0  0  0  0  0  0  0  0  0
   11.9632  -14.0479    0.0000 C   0  0  0  0  0  0  0  0  0  0  0  0
   11.9632  -11.5650    0.0000 N   0  0  0  0  0  0  0  0  0  0  0  0
   10.5297  -14.0479    0.0000 N   0  0  0  0  0  0  0  0  0  0  0  0
   10.5297  -11.5650    0.0000 C   0  0  0  0  0  0  0  0  0  0  0  0
    9.8130  -12.8065    0.0000 C   0  0  0  0  0  0  0  0  0  0  0  0
   19.1308  -14.0479    0.0000 O   0  0  0  0  0  0  0  0  0  0  0  0
   16.9805  -12.8065    0.0000 O   0  0  0  0  0  0  0  0  0  0  0  0
   21.2811   -7.8406    0.0000 O   0  0  0  0  0  0  0  0  0  0  0  0
   21.2811  -10.3235    0.0000 O   0  0  0  0  0  0  0  0  0  0  0  0
  1  2  1  0
  2  3  1  0
  3  4  1  0
  4  5  1  0
  5  6  1  0
  4  7  1  0
  1  8  1  0
  1  9  1  0
  7 10  1  0
 12 11  2  0
 13 11  1  0
 14 12  1  0
 15 13  2  0
 16 14  2  0
 16 15  1  0
  8 11  1  0
 18 17  2  0
 19 17  1  0
 20 18  1  0
 21 19  2  0
 22 20  2  0
 22 21  1  0
  9 17  1  0
  6 23  2  0
  6 24  1  0
 10 25  2  0
 10 26  1  0
M  END
>  <Name>  (248) 
Lpz

>  <logK_Lu_z=3.0_T=25_I=1.0>  (248) 
9.77

$$$$

     RDKit          2D

  9  8  0  0  0  0  0  0  0  0999 V2000
    8.8045   -8.8614    0.0000 C   0  0  0  0  0  0  0  0  0  0  0  0
   11.2193   -7.4672    0.0000 C   0  0  0  0  0  0  0  0  0  0  0  0
   13.6341   -8.8614    0.0000 C   0  0  0  0  0  0  0  0  0  0  0  0
   16.0489   -7.4672    0.0000 C   0  0  0  0  0  0  0  0  0  0  0  0
   16.0489   -4.6788    0.0000 O   0  0  0  0  0  0  0  0  0  0  0  0
   18.4637   -8.8614    0.0000 O   0  0  0  0  0  0  0  0  0  0  0  0
   13.6341  -11.6497    0.0000 O   0  0  0  0  0  0  0  0  0  0  0  0
    8.8045  -11.6497    0.0000 O   0  0  0  0  0  0  0  0  0  0  0  0
    6.3897   -7.4672    0.0000 O   0  0  0  0  0  0  0  0  0  0  0  0
  1  2  1  0
  2  3  1  0
  3  4  1  0
  4  5  2  0
  4  6  1  0
  3  7  1  0
  1  8  2  0
  1  9  1  0
M  END
>  <Name>  (249) 
Malic

>  <logK_Lu_z=3.0_T=25_I=1.0>  (249) 
4.98

$$$$

     RDKit          2D

 20 20  0  0  0  0  0  0  0  0999 V2000
   13.8750  -12.4107    0.0000 C   0  0  0  0  0  0  0  0  0  0  0  0
   13.8750  -13.7407    0.0000 C   0  0  0  0  0  0  0  0  0  0  0  0
   12.7231  -11.7457    0.0000 C   0  0  0  0  0  0  0  0  0  0  0  0
   12.7231  -14.4057    0.0000 N   0  0  0  0  0  0  0  0  0  0  0  0
   11.5713  -12.4107    0.0000 C   0  0  0  0  0  0  0  0  0  0  0  0
   11.5713  -13.7407    0.0000 C   0  0  0  0  0  0  0  0  0  0  0  0
   15.0268  -14.4057    0.0000 C   0  0  0  0  0  0  0  0  0  0  0  0
   15.0267  -15.7357    0.0000 O   0  0  0  0  0  0  0  0  0  0  0  0
   16.1786  -13.7407    0.0000 N   0  0  0  0  0  0  0  0  0  0  0  0
   17.3304  -14.4058    0.0000 C   0  0  0  0  0  0  0  0  0  0  0  0
   16.1786  -12.4107    0.0000 C   0  0  0  0  0  0  0  0  0  0  0  0
   17.3305  -11.7458    0.0000 C   0  0  0  0  0  0  0  0  0  0  0  0
   17.3304  -15.7357    0.0000 C   0  0  0  0  0  0  0  0  0  0  0  0
   10.4195  -14.4057    0.0000 C   0  0  0  0  0  0  0  0  0  0  0  0
    9.2677  -13.7406    0.0000 N   0  0  0  0  0  0  0  0  0  0  0  0
   10.4194  -15.7357    0.0000 O   0  0  0  0  0  0  0  0  0  0  0  0
    9.2677  -12.4106    0.0000 C   0  0  0  0  0  0  0  0  0  0  0  0
    8.1158  -14.4056    0.0000 C   0  0  0  0  0  0  0  0  0  0  0  0
   10.4195  -11.7457    0.0000 C   0  0  0  0  0  0  0  0  0  0  0  0
    6.9640  -13.7406    0.0000 C   0  0  0  0  0  0  0  0  0  0  0  0
  2  1  2  0
  3  1  1  0
  4  2  1  0
  5  3  2  0
  6  4  2  0
  6  5  1  0
  2  7  1  0
  7  8  2  0
  7  9  1  0
  9 10  1  0
  9 11  1  0
 11 12  1  0
 10 13  1  0
  6 14  1  0
 14 15  1  0
 14 16  2  0
 15 17  1  0
 15 18  1  0
 17 19  1  0
 18 20  1  0
M  END
>  <Name>  (250) 
N&N&N'&N'-tetra-ethylpyridine-2&6-dicarboxamide

>  <logK_Lu_z=3.0_T=25_I=1.0>  (250) 
8.1

$$$$

     RDKit          2D

 40 44  0  0  0  0  0  0  0  0999 V2000
   16.4086  -12.4040    0.0000 C   0  0  0  0  0  0  0  0  0  0  0  0
   16.6451  -11.1069    0.0000 C   0  0  0  0  0  0  0  0  0  0  0  0
   15.1735  -12.8585    0.0000 C   0  0  0  0  0  0  0  0  0  0  0  0
   15.6361  -10.2477    0.0000 N   0  0  0  0  0  0  0  0  0  0  0  0
   14.1516  -12.0024    0.0000 C   0  0  0  0  0  0  0  0  0  0  0  0
   14.3852  -10.6930    0.0000 C   0  0  0  0  0  0  0  0  0  0  0  0
   17.8927  -10.6492    0.0000 C   0  0  0  0  0  0  0  0  0  0  0  0
   13.3680   -9.8291    0.0000 C   0  0  0  0  0  0  0  0  0  0  0  0
   18.9100  -11.5131    0.0000 N   0  0  0  0  0  0  0  0  0  0  0  0
   12.1204  -10.2868    0.0000 N   0  0  0  0  0  0  0  0  0  0  0  0
   13.6045   -8.5319    0.0000 O   0  0  0  0  0  0  0  0  0  0  0  0
   18.1342   -9.3444    0.0000 O   0  0  0  0  0  0  0  0  0  0  0  0
   11.8789  -11.5916    0.0000 C   0  0  0  0  0  0  0  0  0  0  0  0
   11.2676   -9.2616    0.0000 C   0  0  0  0  0  0  0  0  0  0  0  0
   18.6809  -12.8146    0.0000 C   0  0  0  0  0  0  0  0  0  0  0  0
   20.1654  -11.0599    0.0000 C   0  0  0  0  0  0  0  0  0  0  0  0
   19.6953  -13.6664    0.0000 C   0  0  0  0  0  0  0  0  0  0  0  0
   19.4571  -14.9836    0.0000 C   0  0  0  0  0  0  0  0  0  0  0  0
   20.9412  -13.2287    0.0000 C   0  0  0  0  0  0  0  0  0  0  0  0
   20.4789  -15.8397    0.0000 C   0  0  0  0  0  0  0  0  0  0  0  0
   21.9630  -14.0848    0.0000 C   0  0  0  0  0  0  0  0  0  0  0  0
   21.7298  -15.3944    0.0000 C   0  0  0  0  0  0  0  0  0  0  0  0
   20.3990   -9.7506    0.0000 C   0  0  0  0  0  0  0  0  0  0  0  0
   19.3817   -8.8866    0.0000 C   0  0  0  0  0  0  0  0  0  0  0  0
   21.6544   -9.2974    0.0000 C   0  0  0  0  0  0  0  0  0  0  0  0
   19.6153   -7.5773    0.0000 C   0  0  0  0  0  0  0  0  0  0  0  0
   21.8878   -7.9875    0.0000 C   0  0  0  0  0  0  0  0  0  0  0  0
   20.8660   -7.1314    0.0000 C   0  0  0  0  0  0  0  0  0  0  0  0
   11.7197   -8.0175    0.0000 C   0  0  0  0  0  0  0  0  0  0  0  0
   10.8628   -7.0004    0.0000 C   0  0  0  0  0  0  0  0  0  0  0  0
   13.0290   -7.7902    0.0000 C   0  0  0  0  0  0  0  0  0  0  0  0
   11.3192   -5.7479    0.0000 C   0  0  0  0  0  0  0  0  0  0  0  0
   13.4815   -6.5453    0.0000 C   0  0  0  0  0  0  0  0  0  0  0  0
   12.6285   -5.5205    0.0000 C   0  0  0  0  0  0  0  0  0  0  0  0
   10.6314  -12.0493    0.0000 C   0  0  0  0  0  0  0  0  0  0  0  0
    9.6141  -11.1854    0.0000 C   0  0  0  0  0  0  0  0  0  0  0  0
   10.3903  -13.3543    0.0000 C   0  0  0  0  0  0  0  0  0  0  0  0
    8.3591  -11.6388    0.0000 C   0  0  0  0  0  0  0  0  0  0  0  0
    9.1471  -13.8046    0.0000 C   0  0  0  0  0  0  0  0  0  0  0  0
    8.1253  -12.9485    0.0000 C   0  0  0  0  0  0  0  0  0  0  0  0
  2  1  2  0
  3  1  1  0
  4  2  1  0
  5  3  2  0
  6  4  2  0
  6  5  1  0
  2  7  1  0
  6  8  1  0
  7  9  1  0
  8 10  1  0
  8 11  2  0
  7 12  2  0
 10 13  1  0
 10 14  1  0
  9 15  1  0
  9 16  1  0
 18 17  2  0
 19 17  1  0
 20 18  1  0
 21 19  2  0
 22 20  2  0
 22 21  1  0
 15 17  1  0
 24 23  2  0
 25 23  1  0
 26 24  1  0
 27 25  2  0
 28 26  2  0
 28 27  1  0
 16 23  1  0
 30 29  2  0
 31 29  1  0
 32 30  1  0
 33 31  2  0
 34 32  2  0
 34 33  1  0
 14 29  1  0
 36 35  2  0
 37 35  1  0
 38 36  1  0
 39 37  2  0
 40 38  2  0
 40 39  1  0
 13 35  1  0
M  END
>  <Name>  (251) 
N&N&N'&N'-tetrabenzylpyridine-2&6-dicarboxamide

>  <logK_Lu_z=3.0_T=25_I=1.0>  (251) 
5.3

$$$$

     RDKit          2D

 24 24  0  0  0  0  0  0  0  0999 V2000
   15.3186   -7.4329    0.0000 C   0  0  0  0  0  0  0  0  0  0  0  0
   15.3186   -8.7629    0.0000 C   0  0  0  0  0  0  0  0  0  0  0  0
   14.1668   -6.7679    0.0000 C   0  0  0  0  0  0  0  0  0  0  0  0
   14.1668   -9.4279    0.0000 N   0  0  0  0  0  0  0  0  0  0  0  0
   13.0150   -7.4329    0.0000 C   0  0  0  0  0  0  0  0  0  0  0  0
   13.0150   -8.7629    0.0000 C   0  0  0  0  0  0  0  0  0  0  0  0
   16.4704   -9.4279    0.0000 C   0  0  0  0  0  0  0  0  0  0  0  0
   11.8632   -9.4279    0.0000 C   0  0  0  0  0  0  0  0  0  0  0  0
   17.6222   -8.7629    0.0000 N   0  0  0  0  0  0  0  0  0  0  0  0
   10.7113   -8.7629    0.0000 N   0  0  0  0  0  0  0  0  0  0  0  0
   10.7113   -7.4329    0.0000 C   0  0  0  0  0  0  0  0  0  0  0  0
   11.8632   -6.7679    0.0000 C   0  0  0  0  0  0  0  0  0  0  0  0
    9.5595   -6.7679    0.0000 C   0  0  0  0  0  0  0  0  0  0  0  0
    9.5595   -9.4279    0.0000 C   0  0  0  0  0  0  0  0  0  0  0  0
    8.4077   -8.7629    0.0000 C   0  0  0  0  0  0  0  0  0  0  0  0
    9.5595  -10.7579    0.0000 C   0  0  0  0  0  0  0  0  0  0  0  0
   17.6222   -7.4329    0.0000 C   0  0  0  0  0  0  0  0  0  0  0  0
   18.7740   -6.7679    0.0000 C   0  0  0  0  0  0  0  0  0  0  0  0
   16.4704   -6.7679    0.0000 C   0  0  0  0  0  0  0  0  0  0  0  0
   18.7740   -9.4279    0.0000 C   0  0  0  0  0  0  0  0  0  0  0  0
   18.7740  -10.7579    0.0000 C   0  0  0  0  0  0  0  0  0  0  0  0
   19.9259   -8.7629    0.0000 C   0  0  0  0  0  0  0  0  0  0  0  0
   11.8632  -10.7579    0.0000 O   0  0  0  0  0  0  0  0  0  0  0  0
   16.4704  -10.7579    0.0000 O   0  0  0  0  0  0  0  0  0  0  0  0
  2  1  2  0
  3  1  1  0
  4  2  1  0
  5  3  2  0
  6  4  2  0
  6  5  1  0
  2  7  1  0
  6  8  1  0
  7  9  1  0
  8 10  1  0
 10 11  1  0
 11 12  1  0
 11 13  1  0
 10 14  1  0
 14 15  1  0
 14 16  1  0
  9 17  1  0
 17 18  1  0
 17 19  1  0
  9 20  1  0
 20 21  1  0
 20 22  1  0
  8 23  2  0
  7 24  2  0
M  END
>  <Name>  (252) 
N&N&N'&N'-tetraisopropylpyridine-2&6-dicarboxamide

>  <logK_Lu_z=3.0_T=25_I=1.0>  (252) 
7.6

$$$$

     RDKit          2D

 24 23  0  0  0  0  0  0  0  0999 V2000
   15.3742  -11.3210    0.0000 O   0  0  0  0  0  0  0  0  0  0  0  0
   16.5260  -10.6560    0.0000 C   0  0  0  0  0  0  0  0  0  0  0  0
   17.6778  -11.3210    0.0000 C   0  0  0  0  0  0  0  0  0  0  0  0
   14.2223  -10.6560    0.0000 C   0  0  0  0  0  0  0  0  0  0  0  0
   13.0705  -11.3210    0.0000 C   0  0  0  0  0  0  0  0  0  0  0  0
   18.8296  -10.6560    0.0000 N   0  0  0  0  0  0  0  0  0  0  0  0
   11.9187  -10.6560    0.0000 N   0  0  0  0  0  0  0  0  0  0  0  0
   18.8296   -9.3260    0.0000 C   0  0  0  0  0  0  0  0  0  0  0  0
   19.9814   -8.6610    0.0000 C   0  0  0  0  0  0  0  0  0  0  0  0
   19.9814  -11.3210    0.0000 C   0  0  0  0  0  0  0  0  0  0  0  0
   19.9814  -12.6510    0.0000 C   0  0  0  0  0  0  0  0  0  0  0  0
   11.9187   -9.3260    0.0000 C   0  0  0  0  0  0  0  0  0  0  0  0
   10.7669   -8.6610    0.0000 C   0  0  0  0  0  0  0  0  0  0  0  0
   10.7669   -7.3310    0.0000 C   0  0  0  0  0  0  0  0  0  0  0  0
   10.7669  -11.3210    0.0000 C   0  0  0  0  0  0  0  0  0  0  0  0
    9.6151  -10.6560    0.0000 C   0  0  0  0  0  0  0  0  0  0  0  0
   19.9814   -7.3310    0.0000 O   0  0  0  0  0  0  0  0  0  0  0  0
   21.1332   -9.3260    0.0000 O   0  0  0  0  0  0  0  0  0  0  0  0
   21.1332  -13.3160    0.0000 O   0  0  0  0  0  0  0  0  0  0  0  0
   18.8296  -13.3160    0.0000 O   0  0  0  0  0  0  0  0  0  0  0  0
    9.6151   -9.3260    0.0000 O   0  0  0  0  0  0  0  0  0  0  0  0
    8.4633  -11.3210    0.0000 O   0  0  0  0  0  0  0  0  0  0  0  0
   11.9187   -6.6660    0.0000 O   0  0  0  0  0  0  0  0  0  0  0  0
    9.6151   -6.6660    0.0000 O   0  0  0  0  0  0  0  0  0  0  0  0
  1  2  1  0
  2  3  1  0
  1  4  1  0
  4  5  1  0
  3  6  1  0
  5  7  1  0
  6  8  1  0
  8  9  1  0
  6 10  1  0
 10 11  1  0
  7 12  1  0
 12 13  1  0
 13 14  1  0
  7 15  1  0
 15 16  1  0
  9 17  1  0
  9 18  2  0
 11 19  2  0
 11 20  1  0
 16 21  1  0
 16 22  2  0
 14 23  2  0
 14 24  1  0
M  END
>  <Name>  (253) 
N-(2-Carboxyethyl)oxybis(ethyleneamine)-N&N'&N'-triacetic

>  <logK_Lu_z=3.0_T=25_I=1.0>  (253) 
15.14

$$$$

     RDKit          2D

 17 17  0  0  0  0  0  0  0  0999 V2000
   14.6186   -9.1570    0.0000 C   0  0  0  0  0  0  0  0  0  0  0  0
   15.2735   -7.9962    0.0000 C   0  0  0  0  0  0  0  0  0  0  0  0
   13.2947   -9.1570    0.0000 C   0  0  0  0  0  0  0  0  0  0  0  0
   14.6075   -6.8498    0.0000 C   0  0  0  0  0  0  0  0  0  0  0  0
   12.6215   -8.0099    0.0000 C   0  0  0  0  0  0  0  0  0  0  0  0
   13.2778   -6.8547    0.0000 C   0  0  0  0  0  0  0  0  0  0  0  0
   15.3595  -10.2659    0.0000 C   0  0  0  0  0  0  0  0  0  0  0  0
   16.7026  -10.2763    0.0000 N   0  0  0  0  0  0  0  0  0  0  0  0
   17.3752   -9.1615    0.0000 C   0  0  0  0  0  0  0  0  0  0  0  0
   17.3354  -11.4198    0.0000 C   0  0  0  0  0  0  0  0  0  0  0  0
   18.6150   -8.8407    0.0000 C   0  0  0  0  0  0  0  0  0  0  0  0
   18.5720  -11.7670    0.0000 C   0  0  0  0  0  0  0  0  0  0  0  0
   12.6238  -10.3056    0.0000 O   0  0  0  0  0  0  0  0  0  0  0  0
   18.7508   -7.4761    0.0000 O   0  0  0  0  0  0  0  0  0  0  0  0
   19.8292   -9.3390    0.0000 O   0  0  0  0  0  0  0  0  0  0  0  0
   18.6782  -13.1322    0.0000 O   0  0  0  0  0  0  0  0  0  0  0  0
   19.7927  -11.2941    0.0000 O   0  0  0  0  0  0  0  0  0  0  0  0
  2  1  2  0
  3  1  1  0
  4  2  1  0
  5  3  2  0
  6  4  2  0
  6  5  1  0
  1  7  1  0
  7  8  1  0
  8  9  1  0
  8 10  1  0
  9 11  1  0
 10 12  1  0
  3 13  1  0
 11 14  2  0
 11 15  1  0
 12 16  2  0
 12 17  1  0
M  END
>  <Name>  (254) 
N-(2-Hydroxybenzyl)iminodiacetic

>  <logK_Lu_z=3.0_T=25_I=1.0>  (254) 
14.05

$$$$

     RDKit          2D

  9  9  0  0  0  0  0  0  0  0999 V2000
   12.3715   -8.7732    0.0000 C   0  0  0  0  0  0  0  0  0  0  0  0
   12.3715  -10.1032    0.0000 C   0  0  0  0  0  0  0  0  0  0  0  0
   11.2197   -8.1082    0.0000 C   0  0  0  0  0  0  0  0  0  0  0  0
   11.2197  -10.7682    0.0000 C   0  0  0  0  0  0  0  0  0  0  0  0
   10.0679   -8.7732    0.0000 C   0  0  0  0  0  0  0  0  0  0  0  0
   10.0679  -10.1032    0.0000 N   0  0  0  0  0  0  0  0  0  0  0  0
   13.5234  -10.7682    0.0000 C   0  0  0  0  0  0  0  0  0  0  0  0
   14.6752  -10.1032    0.0000 O   0  0  0  0  0  0  0  0  0  0  0  0
   13.5234  -12.0982    0.0000 O   0  0  0  0  0  0  0  0  0  0  0  0
  2  1  2  0
  3  1  1  0
  4  2  1  0
  5  3  2  0
  6  4  2  0
  6  5  1  0
  2  7  1  0
  7  8  1  0
  7  9  2  0
M  END
>  <Name>  (255) 
Nicotinic

>  <logK_Lu_z=3.0_T=25_I=1.0>  (255) 
2.19

$$$$

     RDKit          2D

 23 22  0  0  0  0  0  0  0  0999 V2000
   13.8389  -13.4961    0.0000 C   0  0  0  0  0  0  0  0  0  0  0  0
   12.2447  -14.4165    0.0000 C   0  0  0  0  0  0  0  0  0  0  0  0
   15.4564  -10.7362    0.0000 C   0  0  0  0  0  0  0  0  0  0  0  0
   15.4554   -8.8815    0.0000 C   0  0  0  0  0  0  0  0  0  0  0  0
   13.8509  -11.6631    0.0000 O   0  0  0  0  0  0  0  0  0  0  0  0
   17.0609   -7.9546    0.0000 N   0  0  0  0  0  0  0  0  0  0  0  0
   12.2453  -16.2714    0.0000 N   0  0  0  0  0  0  0  0  0  0  0  0
   17.0605   -6.1000    0.0000 C   0  0  0  0  0  0  0  0  0  0  0  0
   15.4544   -5.1721    0.0000 C   0  0  0  0  0  0  0  0  0  0  0  0
   18.6670   -8.8825    0.0000 C   0  0  0  0  0  0  0  0  0  0  0  0
   18.6550  -10.7155    0.0000 C   0  0  0  0  0  0  0  0  0  0  0  0
   13.8511  -17.1990    0.0000 C   0  0  0  0  0  0  0  0  0  0  0  0
   13.8517  -19.0539    0.0000 C   0  0  0  0  0  0  0  0  0  0  0  0
   10.6402  -17.1981    0.0000 C   0  0  0  0  0  0  0  0  0  0  0  0
    9.0341  -16.2702    0.0000 C   0  0  0  0  0  0  0  0  0  0  0  0
   13.8489   -6.0990    0.0000 O   0  0  0  0  0  0  0  0  0  0  0  0
   15.4541   -3.3176    0.0000 O   0  0  0  0  0  0  0  0  0  0  0  0
   17.0495  -11.6425    0.0000 O   0  0  0  0  0  0  0  0  0  0  0  0
   20.2611  -11.6435    0.0000 O   0  0  0  0  0  0  0  0  0  0  0  0
   12.2466  -19.9806    0.0000 O   0  0  0  0  0  0  0  0  0  0  0  0
   15.4576  -19.9815    0.0000 O   0  0  0  0  0  0  0  0  0  0  0  0
    9.0461  -14.4371    0.0000 O   0  0  0  0  0  0  0  0  0  0  0  0
    7.4286  -17.1971    0.0000 O   0  0  0  0  0  0  0  0  0  0  0  0
  1  2  1  0
  3  4  1  0
  3  5  1  0
  1  5  1  0
  4  6  1  0
  2  7  1  0
  6  8  1  0
  8  9  1  0
  6 10  1  0
 10 11  1  0
  7 12  1  0
 12 13  1  0
  7 14  1  0
 14 15  1  0
  9 16  1  0
  9 17  2  0
 11 18  1  0
 11 19  2  0
 13 20  1  0
 13 21  2  0
 15 22  1  0
 15 23  2  0
M  END
>  <Name>  (256) 
OBETA

>  <logK_Lu_z=3.0_T=25_I=1.0>  (256) 
17.93

$$$$

     RDKit          2D

 31 32  0  0  0  0  0  0  0  0999 V2000
   12.7221   -8.6956    0.0000 C   0  0  0  0  0  0  0  0  0  0  0  0
   12.0576   -7.5447    0.0000 N   0  0  0  0  0  0  0  0  0  0  0  0
   12.0567   -9.8473    0.0000 C   0  0  0  0  0  0  0  0  0  0  0  0
   10.7276   -7.5451    0.0000 C   0  0  0  0  0  0  0  0  0  0  0  0
   10.7267   -9.8476    0.0000 C   0  0  0  0  0  0  0  0  0  0  0  0
   10.0623   -8.6967    0.0000 C   0  0  0  0  0  0  0  0  0  0  0  0
   10.0629   -6.3938    0.0000 C   0  0  0  0  0  0  0  0  0  0  0  0
   14.0521   -8.6953    0.0000 C   0  0  0  0  0  0  0  0  0  0  0  0
   14.7165   -9.8462    0.0000 N   0  0  0  0  0  0  0  0  0  0  0  0
   16.0386   -9.8504    0.0000 C   0  0  0  0  0  0  0  0  0  0  0  0
   16.6987  -10.9938    0.0000 C   0  0  0  0  0  0  0  0  0  0  0  0
   18.6924  -14.4469    0.0000 C   0  0  0  0  0  0  0  0  0  0  0  0
   20.0144  -14.4511    0.0000 C   0  0  0  0  0  0  0  0  0  0  0  0
   18.0279  -13.2959    0.0000 C   0  0  0  0  0  0  0  0  0  0  0  0
   20.6797  -13.2994    0.0000 C   0  0  0  0  0  0  0  0  0  0  0  0
   18.6853  -12.1489    0.0000 C   0  0  0  0  0  0  0  0  0  0  0  0
   20.0153  -12.1485    0.0000 N   0  0  0  0  0  0  0  0  0  0  0  0
   22.0097  -13.2991    0.0000 C   0  0  0  0  0  0  0  0  0  0  0  0
   18.0206  -10.9976    0.0000 N   0  0  0  0  0  0  0  0  0  0  0  0
   18.6861   -9.8463    0.0000 C   0  0  0  0  0  0  0  0  0  0  0  0
   18.0260   -8.7030    0.0000 C   0  0  0  0  0  0  0  0  0  0  0  0
   14.0512  -10.9978    0.0000 C   0  0  0  0  0  0  0  0  0  0  0  0
   14.7113  -12.1412    0.0000 C   0  0  0  0  0  0  0  0  0  0  0  0
   16.0411  -12.1404    0.0000 O   0  0  0  0  0  0  0  0  0  0  0  0
   14.0458  -13.2924    0.0000 O   0  0  0  0  0  0  0  0  0  0  0  0
   16.6960   -8.7033    0.0000 O   0  0  0  0  0  0  0  0  0  0  0  0
   18.6913   -7.5514    0.0000 O   0  0  0  0  0  0  0  0  0  0  0  0
   22.6750  -12.1475    0.0000 O   0  0  0  0  0  0  0  0  0  0  0  0
   22.6742  -14.4500    0.0000 O   0  0  0  0  0  0  0  0  0  0  0  0
   10.7284   -5.2425    0.0000 O   0  0  0  0  0  0  0  0  0  0  0  0
    8.7331   -6.3945    0.0000 O   0  0  0  0  0  0  0  0  0  0  0  0
  2  1  2  0
  3  1  1  0
  4  2  1  0
  5  3  2  0
  6  4  2  0
  6  5  1  0
  4  7  1  0
  1  8  1  0
  8  9  1  0
  9 10  1  0
 10 11  1  0
 13 12  2  0
 14 12  1  0
 15 13  1  0
 16 14  2  0
 17 15  2  0
 17 16  1  0
 15 18  1  0
 16 19  1  0
 11 19  1  0
 19 20  1  0
 20 21  1  0
  9 22  1  0
 22 23  1  0
 23 24  2  0
 23 25  1  0
 21 26  2  0
 21 27  1  0
 18 28  2  0
 18 29  1  0
  7 30  1  0
  7 31  2  0
M  END
>  <Name>  (257) 
octapa

>  <logK_Lu_z=3.0_T=25_I=1.0>  (257) 
20.49

$$$$

     RDKit          2D

  6  5  0  0  0  0  0  0  0  0999 V2000
   11.2810   -7.9880    0.0000 C   0  0  0  0  0  0  0  0  0  0  0  0
   12.6110   -7.9880    0.0000 C   0  0  0  0  0  0  0  0  0  0  0  0
   13.2760   -9.1398    0.0000 O   0  0  0  0  0  0  0  0  0  0  0  0
   13.2760   -6.8362    0.0000 C   0  0  0  0  0  0  0  0  0  0  0  0
   10.6160   -6.8362    0.0000 C   0  0  0  0  0  0  0  0  0  0  0  0
   10.6160   -9.1398    0.0000 O   0  0  0  0  0  0  0  0  0  0  0  0
  1  2  1  0
  2  3  2  0
  2  4  1  0
  1  5  1  0
  1  6  2  0
M  END
>  <Name>  (258) 
Oxalic

>  <logK_Lu_z=3.0_T=25_I=1.0>  (258) 
6.04

$$$$

     RDKit          2D

 18 20  0  0  0  0  0  0  0  0999 V2000
   17.0325   -7.4901    0.0000 C   0  0  0  0  0  0  0  0  0  0  0  0
   16.3676   -8.6419    0.0000 C   0  0  0  0  0  0  0  0  0  0  0  0
   16.3676   -6.3383    0.0000 C   0  0  0  0  0  0  0  0  0  0  0  0
   15.0376   -8.6419    0.0000 C   0  0  0  0  0  0  0  0  0  0  0  0
   15.0376   -6.3383    0.0000 C   0  0  0  0  0  0  0  0  0  0  0  0
   14.3726   -7.4901    0.0000 C   0  0  0  0  0  0  0  0  0  0  0  0
   18.3625   -7.4901    0.0000 C   0  0  0  0  0  0  0  0  0  0  0  0
   19.0275   -8.6419    0.0000 C   0  0  0  0  0  0  0  0  0  0  0  0
   17.0325   -9.7937    0.0000 N   0  0  0  0  0  0  0  0  0  0  0  0
   18.3625   -9.7937    0.0000 C   0  0  0  0  0  0  0  0  0  0  0  0
   14.3726   -9.7937    0.0000 N   0  0  0  0  0  0  0  0  0  0  0  0
   13.0426   -9.7937    0.0000 C   0  0  0  0  0  0  0  0  0  0  0  0
   13.0426   -7.4901    0.0000 C   0  0  0  0  0  0  0  0  0  0  0  0
   12.3776   -8.6419    0.0000 C   0  0  0  0  0  0  0  0  0  0  0  0
   12.3776  -10.9454    0.0000 C   0  0  0  0  0  0  0  0  0  0  0  0
   19.0275  -10.9454    0.0000 C   0  0  0  0  0  0  0  0  0  0  0  0
   13.0426  -12.0972    0.0000 O   0  0  0  0  0  0  0  0  0  0  0  0
   18.3625  -12.0972    0.0000 O   0  0  0  0  0  0  0  0  0  0  0  0
  3  1  2  0
  4  2  2  0
  5  3  1  0
  6  5  2  0
  7  1  1  0
  2  1  1  0
  8  7  2  0
  9  2  1  0
 10  8  1  0
 10  9  2  0
 11  4  1  0
  6  4  1  0
 12 11  2  0
 13  6  1  0
 14 12  1  0
 14 13  2  0
 12 15  1  0
 10 16  1  0
 15 17  1  0
 16 18  1  0
M  END
>  <Name>  (259) 
PDALC

>  <logK_Lu_z=3.0_T=25_I=1.0>  (259) 
6.4

$$$$

     RDKit          2D

 20 22  0  0  0  0  0  0  0  0999 V2000
   23.5554  -11.0314    0.0000 C   0  0  0  0  0  0  0  0  0  0  0  0
   22.8904  -12.1832    0.0000 C   0  0  0  0  0  0  0  0  0  0  0  0
   22.8904   -9.8796    0.0000 C   0  0  0  0  0  0  0  0  0  0  0  0
   21.5604  -12.1832    0.0000 C   0  0  0  0  0  0  0  0  0  0  0  0
   21.5604   -9.8796    0.0000 C   0  0  0  0  0  0  0  0  0  0  0  0
   20.8955  -11.0314    0.0000 C   0  0  0  0  0  0  0  0  0  0  0  0
   24.8854  -11.0314    0.0000 C   0  0  0  0  0  0  0  0  0  0  0  0
   25.5503  -12.1832    0.0000 C   0  0  0  0  0  0  0  0  0  0  0  0
   23.5554  -13.3350    0.0000 N   0  0  0  0  0  0  0  0  0  0  0  0
   24.8854  -13.3350    0.0000 C   0  0  0  0  0  0  0  0  0  0  0  0
   20.8955  -13.3350    0.0000 N   0  0  0  0  0  0  0  0  0  0  0  0
   19.5655  -13.3350    0.0000 C   0  0  0  0  0  0  0  0  0  0  0  0
   19.5655  -11.0314    0.0000 C   0  0  0  0  0  0  0  0  0  0  0  0
   18.9005  -12.1832    0.0000 C   0  0  0  0  0  0  0  0  0  0  0  0
   18.9005  -14.4868    0.0000 C   0  0  0  0  0  0  0  0  0  0  0  0
   25.5504  -14.4868    0.0000 C   0  0  0  0  0  0  0  0  0  0  0  0
   17.5705  -14.4868    0.0000 N   0  0  0  0  0  0  0  0  0  0  0  0
   26.8803  -14.4868    0.0000 N   0  0  0  0  0  0  0  0  0  0  0  0
   19.5655  -15.6386    0.0000 O   0  0  0  0  0  0  0  0  0  0  0  0
   24.8854  -15.6386    0.0000 O   0  0  0  0  0  0  0  0  0  0  0  0
  3  1  2  0
  4  2  2  0
  5  3  1  0
  6  5  2  0
  7  1  1  0
  2  1  1  0
  8  7  2  0
  9  2  1  0
 10  8  1  0
 10  9  2  0
 11  4  1  0
  6  4  1  0
 12 11  2  0
 13  6  1  0
 14 12  1  0
 14 13  2  0
 12 15  1  0
 10 16  1  0
 15 17  1  0
 16 18  1  0
 15 19  2  0
 16 20  2  0
M  END
>  <Name>  (260) 
PDAM

>  <logK_Lu_z=3.0_T=25_I=1.0>  (260) 
3.8

$$$$

     RDKit          2D

 12 12  0  0  1  0  0  0  0  0999 V2000
   10.0420   -7.7076    0.0000 C   0  0  0  0  0  0  0  0  0  0  0  0
   10.0420   -9.0376    0.0000 C   0  0  0  0  0  0  0  0  0  0  0  0
    8.8901   -7.0426    0.0000 C   0  0  0  0  0  0  0  0  0  0  0  0
    8.8901   -9.7026    0.0000 C   0  0  0  0  0  0  0  0  0  0  0  0
    7.7383   -7.7076    0.0000 C   0  0  0  0  0  0  0  0  0  0  0  0
    7.7383   -9.0376    0.0000 C   0  0  0  0  0  0  0  0  0  0  0  0
   11.1938   -7.0426    0.0000 C   0  0  0  0  0  0  0  0  0  0  0  0
   12.3456   -7.7076    0.0000 C   0  0  0  0  0  0  0  0  0  0  0  0
   13.4974   -7.0426    0.0000 C   0  0  0  0  0  0  0  0  0  0  0  0
   12.3456   -9.0376    0.0000 N   0  0  0  0  0  0  0  0  0  0  0  0
   13.4974   -5.7126    0.0000 O   0  0  0  0  0  0  0  0  0  0  0  0
   14.6492   -7.7076    0.0000 O   0  0  0  0  0  0  0  0  0  0  0  0
  2  1  2  0
  3  1  1  0
  4  2  1  0
  5  3  2  0
  6  4  2  0
  6  5  1  0
  1  7  1  0
  7  8  1  0
  8  9  1  0
  8 10  1  1
  9 11  2  0
  9 12  1  0
M  END
>  <Name>  (261) 
Phenylalanine

>  <logK_Lu_z=3.0_T=25_I=1.0>  (261) 
4.45

$$$$

     RDKit          2D

 40 44  0  0  0  0  0  0  0  0999 V2000
    7.7883   -7.5359    0.0000 C   0  0  0  0  0  0  0  0  0  0  0  0
    7.7970   -8.8502    0.0000 C   0  0  0  0  0  0  0  0  0  0  0  0
    6.6370   -6.8712    0.0000 C   0  0  0  0  0  0  0  0  0  0  0  0
    6.6454   -9.5155    0.0000 C   0  0  0  0  0  0  0  0  0  0  0  0
    5.4948   -7.5210    0.0000 C   0  0  0  0  0  0  0  0  0  0  0  0
    5.4941   -8.8508    0.0000 C   0  0  0  0  0  0  0  0  0  0  0  0
   13.5368   -9.5247    0.0000 C   0  0  0  0  0  0  0  0  0  0  0  0
   13.5365  -10.8547    0.0000 C   0  0  0  0  0  0  0  0  0  0  0  0
   12.3935   -8.8646    0.0000 C   0  0  0  0  0  0  0  0  0  0  0  0
   12.3939  -11.5042    0.0000 N   0  0  0  0  0  0  0  0  0  0  0  0
   11.2419   -9.5299    0.0000 C   0  0  0  0  0  0  0  0  0  0  0  0
   11.2506  -10.8442    0.0000 C   0  0  0  0  0  0  0  0  0  0  0  0
   14.6878  -11.5194    0.0000 C   0  0  0  0  0  0  0  0  0  0  0  0
   10.0990  -11.5094    0.0000 C   0  0  0  0  0  0  0  0  0  0  0  0
    8.9480  -10.8449    0.0000 N   0  0  0  0  0  0  0  0  0  0  0  0
   15.8395  -10.8541    0.0000 N   0  0  0  0  0  0  0  0  0  0  0  0
   10.0984  -12.8398    0.0000 O   0  0  0  0  0  0  0  0  0  0  0  0
   14.6966  -12.8337    0.0000 O   0  0  0  0  0  0  0  0  0  0  0  0
    8.9484   -9.5149    0.0000 C   0  0  0  0  0  0  0  0  0  0  0  0
    7.7962  -11.5106    0.0000 C   0  0  0  0  0  0  0  0  0  0  0  0
   15.8400   -9.5237    0.0000 C   0  0  0  0  0  0  0  0  0  0  0  0
   16.8645  -11.7014    0.0000 C   0  0  0  0  0  0  0  0  0  0  0  0
   16.9917   -8.8585    0.0000 C   0  0  0  0  0  0  0  0  0  0  0  0
   16.9920   -7.5285    0.0000 C   0  0  0  0  0  0  0  0  0  0  0  0
   18.1426   -9.5230    0.0000 C   0  0  0  0  0  0  0  0  0  0  0  0
   18.1437   -6.8632    0.0000 C   0  0  0  0  0  0  0  0  0  0  0  0
   19.2943   -8.8577    0.0000 C   0  0  0  0  0  0  0  0  0  0  0  0
   19.2946   -7.5277    0.0000 C   0  0  0  0  0  0  0  0  0  0  0  0
   16.6309  -13.0097    0.0000 C   0  0  0  0  0  0  0  0  0  0  0  0
   15.3893  -13.4590    0.0000 C   0  0  0  0  0  0  0  0  0  0  0  0
   17.6518  -13.8648    0.0000 C   0  0  0  0  0  0  0  0  0  0  0  0
   15.1636  -14.7713    0.0000 C   0  0  0  0  0  0  0  0  0  0  0  0
   17.4306  -15.1695    0.0000 C   0  0  0  0  0  0  0  0  0  0  0  0
   16.1843  -15.6268    0.0000 C   0  0  0  0  0  0  0  0  0  0  0  0
    7.7958  -12.8406    0.0000 C   0  0  0  0  0  0  0  0  0  0  0  0
    6.6442  -13.5059    0.0000 C   0  0  0  0  0  0  0  0  0  0  0  0
    8.9468  -13.5051    0.0000 C   0  0  0  0  0  0  0  0  0  0  0  0
    6.6439  -14.8359    0.0000 C   0  0  0  0  0  0  0  0  0  0  0  0
    8.9465  -14.8351    0.0000 C   0  0  0  0  0  0  0  0  0  0  0  0
    7.7948  -15.5004    0.0000 C   0  0  0  0  0  0  0  0  0  0  0  0
  2  1  2  0
  3  1  1  0
  4  2  1  0
  5  3  2  0
  6  4  2  0
  6  5  1  0
  8  7  2  0
  9  7  1  0
 10  8  1  0
 11  9  2  0
 12 10  2  0
 12 11  1  0
  8 13  1  0
 12 14  1  0
 14 15  1  0
 13 16  1  0
 14 17  2  0
 13 18  2  0
 15 19  1  0
 15 20  1  0
 16 21  1  0
 16 22  1  0
 24 23  2  0
 25 23  1  0
 26 24  1  0
 27 25  2  0
 28 26  2  0
 28 27  1  0
 21 23  1  0
 30 29  2  0
 31 29  1  0
 32 30  1  0
 33 31  2  0
 34 32  2  0
 34 33  1  0
 22 29  1  0
 36 35  2  0
 37 35  1  0
 38 36  1  0
 39 37  2  0
 40 38  2  0
 40 39  1  0
 20 35  1  0
  2 19  1  0
M  END
>  <Name>  (262) 
PyBn2

>  <logK_Lu_z=3.0_T=25_I=1.0>  (262) 
5.3

$$$$

     RDKit          2D

 20 20  0  0  0  0  0  0  0  0999 V2000
   15.0751   -8.7545    0.0000 C   0  0  0  0  0  0  0  0  0  0  0  0
   15.0791  -10.0767    0.0000 C   0  0  0  0  0  0  0  0  0  0  0  0
   13.9318   -8.0945    0.0000 C   0  0  0  0  0  0  0  0  0  0  0  0
   13.9320  -10.7343    0.0000 N   0  0  0  0  0  0  0  0  0  0  0  0
   12.7847   -8.7521    0.0000 C   0  0  0  0  0  0  0  0  0  0  0  0
   12.7888  -10.0743    0.0000 C   0  0  0  0  0  0  0  0  0  0  0  0
   16.2305  -10.7415    0.0000 C   0  0  0  0  0  0  0  0  0  0  0  0
   11.6372  -10.7397    0.0000 C   0  0  0  0  0  0  0  0  0  0  0  0
   10.4858  -10.0749    0.0000 N   0  0  0  0  0  0  0  0  0  0  0  0
   17.3775  -10.0839    0.0000 N   0  0  0  0  0  0  0  0  0  0  0  0
   11.6367  -12.0697    0.0000 O   0  0  0  0  0  0  0  0  0  0  0  0
   16.2345  -12.0637    0.0000 O   0  0  0  0  0  0  0  0  0  0  0  0
   10.4863   -8.7449    0.0000 C   0  0  0  0  0  0  0  0  0  0  0  0
    9.3352   -8.0803    0.0000 C   0  0  0  0  0  0  0  0  0  0  0  0
    9.3342  -10.7403    0.0000 C   0  0  0  0  0  0  0  0  0  0  0  0
    8.1831  -10.0758    0.0000 C   0  0  0  0  0  0  0  0  0  0  0  0
   17.3780   -8.7539    0.0000 C   0  0  0  0  0  0  0  0  0  0  0  0
   18.5296   -8.0885    0.0000 C   0  0  0  0  0  0  0  0  0  0  0  0
   18.5286  -10.7485    0.0000 C   0  0  0  0  0  0  0  0  0  0  0  0
   19.6802  -10.0830    0.0000 C   0  0  0  0  0  0  0  0  0  0  0  0
  2  1  2  0
  3  1  1  0
  4  2  1  0
  5  3  2  0
  6  4  2  0
  6  5  1  0
  2  7  1  0
  6  8  1  0
  8  9  1  0
  7 10  1  0
  8 11  2  0
  7 12  2  0
  9 13  1  0
 13 14  1  0
  9 15  1  0
 15 16  1  0
 10 17  1  0
 17 18  1  0
 10 19  1  0
 19 20  1  0
M  END
>  <Name>  (263) 
PyEt2

>  <logK_Lu_z=3.0_T=25_I=1.0>  (263) 
8.1

$$$$

     RDKit          2D

 24 24  0  0  0  0  0  0  0  0999 V2000
   15.1316   -9.7748    0.0000 C   0  0  0  0  0  0  0  0  0  0  0  0
   15.1316  -11.1048    0.0000 C   0  0  0  0  0  0  0  0  0  0  0  0
   13.9797   -9.1098    0.0000 C   0  0  0  0  0  0  0  0  0  0  0  0
   13.9797  -11.7698    0.0000 N   0  0  0  0  0  0  0  0  0  0  0  0
   12.8279   -9.7748    0.0000 C   0  0  0  0  0  0  0  0  0  0  0  0
   12.8279  -11.1048    0.0000 C   0  0  0  0  0  0  0  0  0  0  0  0
   16.2834  -11.7698    0.0000 C   0  0  0  0  0  0  0  0  0  0  0  0
   11.6761  -11.7698    0.0000 C   0  0  0  0  0  0  0  0  0  0  0  0
   10.5243  -11.1048    0.0000 N   0  0  0  0  0  0  0  0  0  0  0  0
   17.4352  -11.1048    0.0000 N   0  0  0  0  0  0  0  0  0  0  0  0
   11.6761  -13.0998    0.0000 O   0  0  0  0  0  0  0  0  0  0  0  0
   16.2834  -13.0998    0.0000 O   0  0  0  0  0  0  0  0  0  0  0  0
   10.5243   -9.7748    0.0000 C   0  0  0  0  0  0  0  0  0  0  0  0
    9.3725   -9.1098    0.0000 C   0  0  0  0  0  0  0  0  0  0  0  0
    9.3725  -11.7698    0.0000 C   0  0  0  0  0  0  0  0  0  0  0  0
    8.2207  -11.1048    0.0000 C   0  0  0  0  0  0  0  0  0  0  0  0
   17.4352   -9.7748    0.0000 C   0  0  0  0  0  0  0  0  0  0  0  0
   18.5870   -9.1098    0.0000 C   0  0  0  0  0  0  0  0  0  0  0  0
   18.5870  -11.7698    0.0000 C   0  0  0  0  0  0  0  0  0  0  0  0
   19.7388  -11.1048    0.0000 C   0  0  0  0  0  0  0  0  0  0  0  0
   11.6761   -9.1098    0.0000 C   0  0  0  0  0  0  0  0  0  0  0  0
    9.3725  -13.0998    0.0000 C   0  0  0  0  0  0  0  0  0  0  0  0
   16.2834   -9.1098    0.0000 C   0  0  0  0  0  0  0  0  0  0  0  0
   18.5870  -13.0998    0.0000 C   0  0  0  0  0  0  0  0  0  0  0  0
  2  1  2  0
  3  1  1  0
  4  2  1  0
  5  3  2  0
  6  4  2  0
  6  5  1  0
  2  7  1  0
  6  8  1  0
  8  9  1  0
  7 10  1  0
  8 11  2  0
  7 12  2  0
  9 13  1  0
 13 14  1  0
  9 15  1  0
 15 16  1  0
 10 17  1  0
 17 18  1  0
 10 19  1  0
 19 20  1  0
 13 21  1  0
 15 22  1  0
 17 23  1  0
 19 24  1  0
M  END
>  <Name>  (264) 
PyiPr2

>  <logK_Lu_z=3.0_T=25_I=1.0>  (264) 
7.6

$$$$

     RDKit          2D

 13 13  0  0  1  0  0  0  0  0999 V2000
   12.6171  -10.7102    0.0000 C   0  0  0  0  0  0  0  0  0  0  0  0
   12.6171  -12.0402    0.0000 C   0  0  0  0  0  0  0  0  0  0  0  0
   11.4652  -10.0452    0.0000 C   0  0  0  0  0  0  0  0  0  0  0  0
   11.4652  -12.7052    0.0000 C   0  0  0  0  0  0  0  0  0  0  0  0
   10.3134  -10.7102    0.0000 C   0  0  0  0  0  0  0  0  0  0  0  0
   10.3134  -12.0402    0.0000 C   0  0  0  0  0  0  0  0  0  0  0  0
   12.1302   -8.8934    0.0000 C   0  0  0  0  0  0  0  0  0  0  0  0
   13.7689  -12.7052    0.0000 O   0  0  0  0  0  0  0  0  0  0  0  0
   13.4602   -8.8934    0.0000 O   0  0  0  0  0  0  0  0  0  0  0  0
   11.4652   -7.7416    0.0000 O   0  0  0  0  0  0  0  0  0  0  0  0
   10.8002   -8.8934    0.0000 O   0  0  0  0  0  0  0  0  0  0  0  0
    9.1616  -12.7052    0.0000 O   0  0  0  0  0  0  0  0  0  0  0  0
   11.4652  -14.0352    0.0000 O   0  0  0  0  0  0  0  0  0  0  0  0
  2  1  1  0
  3  1  1  0
  4  2  1  0
  5  3  1  0
  6  4  1  0
  6  5  1  0
  3  7  1  0
  2  8  1  1
  7  9  1  0
  7 10  2  0
  3 11  1  6
  6 12  1  6
  4 13  1  6
M  END
>  <Name>  (265) 
Quinic

>  <logK_Lu_z=3.0_T=25_I=1.0>  (265) 
3.22

$$$$

     RDKit          2D

  7  6  0  0  1  0  0  0  0  0999 V2000
   10.1670   -9.1163    0.0000 C   0  0  0  0  0  0  0  0  0  0  0  0
   11.1207  -10.7682    0.0000 C   0  0  0  0  0  0  0  0  0  0  0  0
   13.0282  -10.7682    0.0000 C   0  0  0  0  0  0  0  0  0  0  0  0
   10.1670  -12.4201    0.0000 N   0  0  0  0  0  0  0  0  0  0  0  0
    8.2595   -9.1163    0.0000 O   0  0  0  0  0  0  0  0  0  0  0  0
   13.9819   -9.1163    0.0000 O   0  0  0  0  0  0  0  0  0  0  0  0
   13.9819  -12.4201    0.0000 O   0  0  0  0  0  0  0  0  0  0  0  0
  1  2  1  0
  2  3  1  0
  2  4  1  1
  1  5  1  0
  3  6  2  0
  3  7  1  0
M  END
>  <Name>  (266) 
Serine

>  <logK_Lu_z=3.0_T=25_I=1.0>  (266) 
3.98

$$$$

     RDKit          2D

  5  4  0  0  0  0  0  0  0  0999 V2000
   14.0772  -12.3706    0.0000 S   0  0  0  0  0  0  0  0  0  0  0  0
   14.0772  -10.7503    0.0000 O   0  0  0  0  0  0  0  0  0  0  0  0
   15.6975  -12.3706    0.0000 O   0  0  0  0  0  0  0  0  0  0  0  0
   12.4568  -12.3706    0.0000 O   0  0  0  0  0  0  0  0  0  0  0  0
   14.0772  -13.9909    0.0000 O   0  0  0  0  0  0  0  0  0  0  0  0
  1  2  1  0
  1  3  2  0
  1  4  1  0
  1  5  2  0
M  CHG  2   2  -1   4  -1
M  END
>  <Name>  (267) 
Sulfate

>  <logK_Lu_z=3.0_T=25_I=1.0>  (267) 
3.49

$$$$

     RDKit          2D

 30 30  0  0  0  0  0  0  0  0999 V2000
   21.2241  -17.1588    0.0000 C   0  0  0  0  0  0  0  0  0  0  0  0
   21.2241  -15.2702    0.0000 C   0  0  0  0  0  0  0  0  0  0  0  0
   20.3894  -13.5585    0.0000 N   0  0  0  0  0  0  0  0  0  0  0  0
   18.9162  -12.3879    0.0000 C   0  0  0  0  0  0  0  0  0  0  0  0
   17.0700  -11.9694    0.0000 C   0  0  0  0  0  0  0  0  0  0  0  0
   15.2303  -12.3961    0.0000 C   0  0  0  0  0  0  0  0  0  0  0  0
   13.7470  -13.5727    0.0000 N   0  0  0  0  0  0  0  0  0  0  0  0
   12.9360  -15.2835    0.0000 C   0  0  0  0  0  0  0  0  0  0  0  0
   12.9360  -17.1721    0.0000 C   0  0  0  0  0  0  0  0  0  0  0  0
   13.7608  -18.8760    0.0000 N   0  0  0  0  0  0  0  0  0  0  0  0
   15.2340  -20.0466    0.0000 C   0  0  0  0  0  0  0  0  0  0  0  0
   17.0900  -20.4729    0.0000 C   0  0  0  0  0  0  0  0  0  0  0  0
   18.9298  -20.0462    0.0000 C   0  0  0  0  0  0  0  0  0  0  0  0
   20.4130  -18.8696    0.0000 N   0  0  0  0  0  0  0  0  0  0  0  0
   21.8735  -12.3818    0.0000 C   0  0  0  0  0  0  0  0  0  0  0  0
   21.5970  -10.5163    0.0000 C   0  0  0  0  0  0  0  0  0  0  0  0
   12.2631  -12.3936    0.0000 C   0  0  0  0  0  0  0  0  0  0  0  0
   12.5348  -10.5284    0.0000 C   0  0  0  0  0  0  0  0  0  0  0  0
   12.2865  -20.0605    0.0000 C   0  0  0  0  0  0  0  0  0  0  0  0
   12.5630  -21.9260    0.0000 C   0  0  0  0  0  0  0  0  0  0  0  0
   21.8969  -20.0487    0.0000 C   0  0  0  0  0  0  0  0  0  0  0  0
   21.6253  -21.9139    0.0000 C   0  0  0  0  0  0  0  0  0  0  0  0
   19.8373   -9.8275    0.0000 O   0  0  0  0  0  0  0  0  0  0  0  0
   23.0692   -9.3134    0.0000 O   0  0  0  0  0  0  0  0  0  0  0  0
   14.2985   -9.8321    0.0000 O   0  0  0  0  0  0  0  0  0  0  0  0
   11.0513   -9.3496    0.0000 O   0  0  0  0  0  0  0  0  0  0  0  0
   14.3228  -22.6148    0.0000 O   0  0  0  0  0  0  0  0  0  0  0  0
   11.0909  -23.1289    0.0000 O   0  0  0  0  0  0  0  0  0  0  0  0
   19.8615  -22.6102    0.0000 O   0  0  0  0  0  0  0  0  0  0  0  0
   23.1088  -23.0927    0.0000 O   0  0  0  0  0  0  0  0  0  0  0  0
  1  2  1  0
  3  4  1  0
  4  5  1  0
  5  6  1  0
  6  7  1  0
  7  8  1  0
  8  9  1  0
  9 10  1  0
 10 11  1  0
 11 12  1  0
 12 13  1  0
 13 14  1  0
  2  3  1  0
  3 15  1  0
 15 16  1  0
  7 17  1  0
 17 18  1  0
 10 19  1  0
 19 20  1  0
  1 14  1  0
 14 21  1  0
 21 22  1  0
 16 23  2  0
 16 24  1  0
 18 25  1  0
 18 26  2  0
 20 27  1  0
 20 28  2  0
 22 29  2  0
 22 30  1  0
M  END
>  <Name>  (268) 
TETA

>  <logK_Lu_z=3.0_T=25_I=1.0>  (268) 
15.31

$$$$

     RDKit          2D

 30 30  0  0  0  0  0  0  0  0999 V2000
   15.5644  -14.2399    0.0000 N   0  0  0  0  0  0  0  0  0  0  0  0
    9.0946  -11.8773    0.0000 N   0  0  0  0  0  0  0  0  0  0  0  0
   12.9445  -14.6913    0.0000 C   0  0  0  0  0  0  0  0  0  0  0  0
   13.4045  -13.4433    0.0000 C   0  0  0  0  0  0  0  0  0  0  0  0
   11.6525  -14.9215    0.0000 C   0  0  0  0  0  0  0  0  0  0  0  0
   12.5550  -12.4346    0.0000 N   0  0  0  0  0  0  0  0  0  0  0  0
   10.7940  -13.9034    0.0000 C   0  0  0  0  0  0  0  0  0  0  0  0
   11.2545  -12.6648    0.0000 C   0  0  0  0  0  0  0  0  0  0  0  0
   10.4046  -11.6470    0.0000 C   0  0  0  0  0  0  0  0  0  0  0  0
   14.7145  -13.2221    0.0000 C   0  0  0  0  0  0  0  0  0  0  0  0
    8.6345  -13.1158    0.0000 C   0  0  0  0  0  0  0  0  0  0  0  0
    8.2451  -10.8591    0.0000 C   0  0  0  0  0  0  0  0  0  0  0  0
   15.1039  -15.4879    0.0000 C   0  0  0  0  0  0  0  0  0  0  0  0
   16.8743  -14.0097    0.0000 C   0  0  0  0  0  0  0  0  0  0  0  0
    7.3332  -13.3461    0.0000 P   0  0  0  0  0  0  0  0  0  0  0  0
    8.6965   -9.6111    0.0000 P   0  0  0  0  0  0  0  0  0  0  0  0
   16.1217  -16.3374    0.0000 P   0  0  0  0  0  0  0  0  0  0  0  0
   17.3257  -12.7711    0.0000 P   0  0  0  0  0  0  0  0  0  0  0  0
    7.1034  -12.0451    0.0000 O   0  0  0  0  0  0  0  0  0  0  0  0
    7.5548  -14.6470    0.0000 O   0  0  0  0  0  0  0  0  0  0  0  0
    6.0233  -13.5673    0.0000 O   0  0  0  0  0  0  0  0  0  0  0  0
    9.9445  -10.0625    0.0000 O   0  0  0  0  0  0  0  0  0  0  0  0
    7.4485   -9.1511    0.0000 O   0  0  0  0  0  0  0  0  0  0  0  0
    9.1566   -8.3631    0.0000 O   0  0  0  0  0  0  0  0  0  0  0  0
   16.9802  -15.3286    0.0000 O   0  0  0  0  0  0  0  0  0  0  0  0
   15.2631  -17.3555    0.0000 O   0  0  0  0  0  0  0  0  0  0  0  0
   17.1398  -17.1959    0.0000 O   0  0  0  0  0  0  0  0  0  0  0  0
   16.0777  -12.3106    0.0000 O   0  0  0  0  0  0  0  0  0  0  0  0
   18.5737  -13.2221    0.0000 O   0  0  0  0  0  0  0  0  0  0  0  0
   17.7858  -11.5231    0.0000 O   0  0  0  0  0  0  0  0  0  0  0  0
  4  3  2  0
  5  3  1  0
  6  4  1  0
  7  5  2  0
  8  6  2  0
  8  7  1  0
  8  9  1  0
  2  9  1  0
  4 10  1  0
  1 10  1  0
  2 11  1  0
  2 12  1  0
  1 13  1  0
  1 14  1  0
 11 15  1  0
 12 16  1  0
 13 17  1  0
 14 18  1  0
 15 19  1  0
 15 20  1  0
 15 21  2  0
 16 22  2  0
 16 23  1  0
 16 24  1  0
 17 25  2  0
 17 26  1  0
 17 27  1  0
 18 28  2  0
 18 29  1  0
 18 30  1  0
M  END
>  <Name>  (269) 
tetraphosphonated-pyridine-L4

>  <logK_Lu_z=3.0_T=25_I=1.0>  (269) 
29.3

$$$$

     RDKit          2D

 22 22  0  0  0  0  0  0  0  0999 V2000
   14.4057  -10.1424    0.0000 C   0  0  0  0  0  0  0  0  0  0  0  0
   13.7407  -11.2942    0.0000 C   0  0  0  0  0  0  0  0  0  0  0  0
   13.7407   -8.9906    0.0000 C   0  0  0  0  0  0  0  0  0  0  0  0
   12.4107  -11.2942    0.0000 C   0  0  0  0  0  0  0  0  0  0  0  0
   12.4107   -8.9906    0.0000 C   0  0  0  0  0  0  0  0  0  0  0  0
   11.7457  -10.1424    0.0000 C   0  0  0  0  0  0  0  0  0  0  0  0
   14.4057   -7.8387    0.0000 N   0  0  0  0  0  0  0  0  0  0  0  0
   11.7457   -7.8387    0.0000 N   0  0  0  0  0  0  0  0  0  0  0  0
   15.7357   -7.8387    0.0000 C   0  0  0  0  0  0  0  0  0  0  0  0
   16.4007   -6.6869    0.0000 C   0  0  0  0  0  0  0  0  0  0  0  0
   16.4007   -8.9906    0.0000 C   0  0  0  0  0  0  0  0  0  0  0  0
   10.4157   -7.8387    0.0000 C   0  0  0  0  0  0  0  0  0  0  0  0
    9.7507   -6.6869    0.0000 C   0  0  0  0  0  0  0  0  0  0  0  0
    9.7507   -8.9906    0.0000 C   0  0  0  0  0  0  0  0  0  0  0  0
   10.4157   -5.5351    0.0000 O   0  0  0  0  0  0  0  0  0  0  0  0
    8.4207   -6.6869    0.0000 O   0  0  0  0  0  0  0  0  0  0  0  0
    8.4207   -8.9906    0.0000 O   0  0  0  0  0  0  0  0  0  0  0  0
   10.4157  -10.1424    0.0000 O   0  0  0  0  0  0  0  0  0  0  0  0
   17.7307   -6.6869    0.0000 O   0  0  0  0  0  0  0  0  0  0  0  0
   15.7357   -5.5351    0.0000 O   0  0  0  0  0  0  0  0  0  0  0  0
   17.7307   -8.9906    0.0000 O   0  0  0  0  0  0  0  0  0  0  0  0
   15.7357  -10.1424    0.0000 O   0  0  0  0  0  0  0  0  0  0  0  0
  2  1  1  0
  3  1  1  0
  4  2  1  0
  5  3  1  0
  6  4  1  0
  6  5  1  0
  3  7  1  0
  5  8  1  0
  7  9  1  0
  9 10  1  0
  9 11  1  0
  8 12  1  0
 12 13  1  0
 12 14  1  0
 13 15  2  0
 13 16  1  0
 14 17  1  0
 14 18  2  0
 10 19  2  0
 10 20  1  0
 11 21  1  0
 11 22  2  0
M  END
>  <Name>  (270) 
trans-1&2-diaminocyclohexane-N&N'-dimalonic

>  <logK_Lu_z=3.0_T=25_I=1.0>  (270) 
15.71

$$$$

     RDKit          2D

 24 24  0  0  0  0  0  0  0  0999 V2000
   15.1187  -14.1842    0.0000 C   0  0  0  0  0  0  0  0  0  0  0  0
   14.4689  -15.3270    0.0000 C   0  0  0  0  0  0  0  0  0  0  0  0
   14.4540  -13.0328    0.0000 C   0  0  0  0  0  0  0  0  0  0  0  0
   13.1386  -15.3274    0.0000 C   0  0  0  0  0  0  0  0  0  0  0  0
   13.1395  -13.0245    0.0000 C   0  0  0  0  0  0  0  0  0  0  0  0
   12.4739  -14.1760    0.0000 C   0  0  0  0  0  0  0  0  0  0  0  0
   15.1196  -11.8813    0.0000 N   0  0  0  0  0  0  0  0  0  0  0  0
   12.4793  -11.8809    0.0000 N   0  0  0  0  0  0  0  0  0  0  0  0
   16.4451  -11.8731    0.0000 C   0  0  0  0  0  0  0  0  0  0  0  0
   17.1151  -10.7291    0.0000 C   0  0  0  0  0  0  0  0  0  0  0  0
   11.1492  -11.8816    0.0000 C   0  0  0  0  0  0  0  0  0  0  0  0
   10.4844  -10.7302    0.0000 C   0  0  0  0  0  0  0  0  0  0  0  0
   11.1499   -9.5783    0.0000 O   0  0  0  0  0  0  0  0  0  0  0  0
    9.1544  -10.7304    0.0000 O   0  0  0  0  0  0  0  0  0  0  0  0
   16.4505   -9.5780    0.0000 O   0  0  0  0  0  0  0  0  0  0  0  0
   18.4406  -10.7210    0.0000 O   0  0  0  0  0  0  0  0  0  0  0  0
   10.4838  -13.0330    0.0000 C   0  0  0  0  0  0  0  0  0  0  0  0
    9.1537  -13.0337    0.0000 C   0  0  0  0  0  0  0  0  0  0  0  0
    8.4889  -11.8823    0.0000 O   0  0  0  0  0  0  0  0  0  0  0  0
    8.4883  -14.1851    0.0000 O   0  0  0  0  0  0  0  0  0  0  0  0
   17.1097  -13.0243    0.0000 C   0  0  0  0  0  0  0  0  0  0  0  0
   18.4400  -13.0239    0.0000 C   0  0  0  0  0  0  0  0  0  0  0  0
   19.1052  -11.8722    0.0000 O   0  0  0  0  0  0  0  0  0  0  0  0
   19.1048  -14.1753    0.0000 O   0  0  0  0  0  0  0  0  0  0  0  0
  2  1  1  0
  3  1  1  0
  4  2  1  0
  5  3  1  0
  6  4  1  0
  6  5  1  0
  3  7  1  0
  5  8  1  0
  7  9  1  0
  9 10  1  0
  8 11  1  0
 11 12  1  0
 12 13  2  0
 12 14  1  0
 10 15  2  0
 10 16  1  0
 11 17  1  0
 18 19  1  0
 18 20  2  0
 17 18  1  0
  9 21  1  0
 22 23  1  0
 22 24  2  0
 21 22  1  0
M  END
>  <Name>  (271) 
trans-1&2-diaminocyclohexane-N&N'-disuccinic

>  <logK_Lu_z=3.0_T=25_I=1.0>  (271) 
14.25

$$$$

     RDKit          2D

 12 12  0  0  0  0  0  0  0  0999 V2000
    9.0185   -8.9905    0.0000 C   0  0  0  0  0  0  0  0  0  0  0  0
    9.6835  -10.1423    0.0000 C   0  0  0  0  0  0  0  0  0  0  0  0
    7.6885   -8.9905    0.0000 C   0  0  0  0  0  0  0  0  0  0  0  0
    9.0185  -11.2941    0.0000 C   0  0  0  0  0  0  0  0  0  0  0  0
    7.0235  -10.1423    0.0000 C   0  0  0  0  0  0  0  0  0  0  0  0
    7.6885  -11.2941    0.0000 C   0  0  0  0  0  0  0  0  0  0  0  0
   11.0135  -10.1423    0.0000 C   0  0  0  0  0  0  0  0  0  0  0  0
   11.6785  -11.2941    0.0000 C   0  0  0  0  0  0  0  0  0  0  0  0
   11.6785   -8.9905    0.0000 C   0  0  0  0  0  0  0  0  0  0  0  0
   13.0085  -11.2941    0.0000 O   0  0  0  0  0  0  0  0  0  0  0  0
   13.0085   -8.9905    0.0000 O   0  0  0  0  0  0  0  0  0  0  0  0
   11.0135   -7.8387    0.0000 O   0  0  0  0  0  0  0  0  0  0  0  0
  2  1  2  0
  3  1  1  0
  4  2  1  0
  5  3  2  0
  6  4  2  0
  6  5  1  0
  2  7  1  0
  7  8  1  0
  7  9  1  0
  8 10  1  0
  9 11  1  0
  9 12  2  0
M  END
>  <Name>  (272) 
Tropic

>  <logK_Lu_z=3.0_T=25_I=1.0>  (272) 
2.09

$$$$

     RDKit          2D

 15 16  0  0  1  0  0  0  0  0999 V2000
   11.0377   -9.3136    0.0000 C   0  0  0  0  0  0  0  0  0  0  0  0
   11.7027  -10.4654    0.0000 C   0  0  0  0  0  0  0  0  0  0  0  0
    9.7077   -9.3136    0.0000 C   0  0  0  0  0  0  0  0  0  0  0  0
   11.0377  -11.6172    0.0000 C   0  0  0  0  0  0  0  0  0  0  0  0
    9.0427  -10.4654    0.0000 C   0  0  0  0  0  0  0  0  0  0  0  0
    9.7077  -11.6172    0.0000 C   0  0  0  0  0  0  0  0  0  0  0  0
   13.0036  -10.1888    0.0000 C   0  0  0  0  0  0  0  0  0  0  0  0
   13.1426   -8.8661    0.0000 C   0  0  0  0  0  0  0  0  0  0  0  0
   11.9276   -8.3252    0.0000 N   0  0  0  0  0  0  0  0  0  0  0  0
   13.9920  -11.0788    0.0000 C   0  0  0  0  0  0  0  0  0  0  0  0
   15.2569  -10.6678    0.0000 C   0  0  0  0  0  0  0  0  0  0  0  0
   16.2453  -11.5577    0.0000 C   0  0  0  0  0  0  0  0  0  0  0  0
   15.5334   -9.3669    0.0000 N   0  0  0  0  0  0  0  0  0  0  0  0
   17.5102  -11.1468    0.0000 O   0  0  0  0  0  0  0  0  0  0  0  0
   15.9688  -12.8587    0.0000 O   0  0  0  0  0  0  0  0  0  0  0  0
  2  1  1  0
  3  1  2  0
  4  2  2  0
  5  3  1  0
  6  4  1  0
  6  5  2  0
  2  7  1  0
  7  8  2  0
  8  9  1  0
  9  1  1  0
  7 10  1  0
 10 11  1  0
 11 12  1  0
 11 13  1  6
 12 14  1  0
 12 15  2  0
M  END
>  <Name>  (273) 
Tryptophan

>  <logK_Lu_z=3.0_T=25_I=1.0>  (273) 
5.2

$$$$

     RDKit          2D

  8  7  0  0  1  0  0  0  0  0999 V2000
    8.5227   -6.7045    0.0000 C   0  0  0  0  0  0  0  0  0  0  0  0
    8.5227   -8.3723    0.0000 C   0  0  0  0  0  0  0  0  0  0  0  0
    7.0784   -9.2062    0.0000 C   0  0  0  0  0  0  0  0  0  0  0  0
    9.9670   -9.2062    0.0000 C   0  0  0  0  0  0  0  0  0  0  0  0
   11.4113   -8.3723    0.0000 C   0  0  0  0  0  0  0  0  0  0  0  0
    9.9670  -10.8739    0.0000 C   0  0  0  0  0  0  0  0  0  0  0  0
   12.8556   -9.2062    0.0000 O   0  0  0  0  0  0  0  0  0  0  0  0
   11.4113   -6.7045    0.0000 O   0  0  0  0  0  0  0  0  0  0  0  0
  1  2  1  0
  2  3  1  0
  2  4  1  0
  4  5  1  0
  4  6  1  1
  5  7  1  0
  5  8  2  0
M  END
>  <Name>  (274) 
Valine

>  <logK_Lu_z=3.0_T=25_I=1.0>  (274) 
4.3

$$$$

     RDKit          2D

 26 27  0  0  0  0  0  0  0  0999 V2000
   13.9667  -11.1228    0.0000 N   0  0  0  0  0  0  0  0  0  0  0  0
   15.4727  -10.2533    0.0000 C   0  0  0  0  0  0  0  0  0  0  0  0
   16.9787  -11.1228    0.0000 C   0  0  0  0  0  0  0  0  0  0  0  0
   18.4847  -10.2533    0.0000 N   0  0  0  0  0  0  0  0  0  0  0  0
   19.9907  -11.1228    0.0000 C   0  0  0  0  0  0  0  0  0  0  0  0
   12.4607  -10.2533    0.0000 C   0  0  0  0  0  0  0  0  0  0  0  0
   12.4607   -8.5144    0.0000 P   0  0  0  0  0  0  0  0  0  0  0  0
   19.9907  -12.8618    0.0000 P   0  0  0  0  0  0  0  0  0  0  0  0
   21.4967  -10.2533    0.0000 C   0  0  0  0  0  0  0  0  0  0  0  0
   21.4967   -8.5144    0.0000 N   0  0  0  0  0  0  0  0  0  0  0  0
   23.0027  -11.1228    0.0000 C   0  0  0  0  0  0  0  0  0  0  0  0
   23.0027   -7.6449    0.0000 C   0  0  0  0  0  0  0  0  0  0  0  0
   24.5087  -10.2533    0.0000 C   0  0  0  0  0  0  0  0  0  0  0  0
   24.5087   -8.5144    0.0000 C   0  0  0  0  0  0  0  0  0  0  0  0
   10.9548  -11.1228    0.0000 C   0  0  0  0  0  0  0  0  0  0  0  0
   10.9548  -12.8618    0.0000 N   0  0  0  0  0  0  0  0  0  0  0  0
    9.4488  -10.2533    0.0000 C   0  0  0  0  0  0  0  0  0  0  0  0
    9.4488  -13.7313    0.0000 C   0  0  0  0  0  0  0  0  0  0  0  0
    7.9428  -11.1228    0.0000 C   0  0  0  0  0  0  0  0  0  0  0  0
    7.9428  -12.8618    0.0000 C   0  0  0  0  0  0  0  0  0  0  0  0
   14.1997   -8.5144    0.0000 O   0  0  0  0  0  0  0  0  0  0  0  0
   10.7218   -8.5144    0.0000 O   0  0  0  0  0  0  0  0  0  0  0  0
   12.4607   -6.7754    0.0000 O   0  0  0  0  0  0  0  0  0  0  0  0
   21.7297  -12.8618    0.0000 O   0  0  0  0  0  0  0  0  0  0  0  0
   18.2517  -12.8618    0.0000 O   0  0  0  0  0  0  0  0  0  0  0  0
   19.9907  -14.6007    0.0000 O   0  0  0  0  0  0  0  0  0  0  0  0
  1  2  1  0
  2  3  1  0
  3  4  1  0
  4  5  1  0
  1  6  1  0
  6  7  1  0
  5  8  1  0
 10  9  2  0
 11  9  1  0
 12 10  1  0
 13 11  2  0
 14 12  2  0
 14 13  1  0
  5  9  1  0
 16 15  2  0
 17 15  1  0
 18 16  1  0
 19 17  2  0
 20 18  2  0
 20 19  1  0
  6 15  1  0
  7 21  1  0
  7 22  1  0
  7 23  2  0
  8 24  1  0
  8 25  1  0
  8 26  2  0
M  END
>  <Name>  (275) 
{ethane-1&2-diylbis[imino(pyridin-2-ylmethanediyl)]}bis(phosphonic%acid)

>  <logK_Lu_z=3.0_T=25_I=1.0>  (275) 
16.42

$$$$
